

        *** GPGPU-Sim Simulator Version 3.2.2  [build 0] ***


GPGPU-Sim PTX: simulation mode 0 (can change with PTX_SIM_MODE_FUNC environment variable:
               1=functional simulation only, 0=detailed performance simulator)
GPGPU-Sim: Configuration options:

-network_mode                           1 # Interconnection network mode
-inter_config_file   config_fermi_islip.icnt # Interconnection network config file
-gpgpu_ptx_use_cuobjdump                    1 # Use cuobjdump to extract ptx and sass from binaries
-gpgpu_experimental_lib_support                    0 # Try to extract code from cuda libraries [Broken because of unknown cudaGetExportTable]
-gpgpu_ptx_convert_to_ptxplus                    0 # Convert SASS (native ISA) to ptxplus and run ptxplus
-gpgpu_ptx_force_max_capability                   20 # Force maximum compute capability
-gpgpu_ptx_inst_debug_to_file                    0 # Dump executed instructions' debug information to file
-gpgpu_ptx_inst_debug_file       inst_debug.txt # Executed instructions' debug output file
-gpgpu_ptx_inst_debug_thread_uid                    1 # Thread UID for executed instructions' debug output
-gpgpu_simd_model                       1 # 1 = post-dominator
-gpgpu_shader_core_pipeline              1536:32 # shader core pipeline config, i.e., {<nthread>:<warpsize>}
-gpgpu_tex_cache:l1  4:128:24,L:R:m:N:L,F:128:4,128:2 # per-shader L1 texture cache  (READ-ONLY) config  {<nsets>:<bsize>:<assoc>,<rep>:<wr>:<alloc>:<wr_alloc>,<mshr>:<N>:<merge>,<mq>:<rf>}
-gpgpu_const_cache:l1 64:64:2,L:R:f:N:L,A:2:32,4 # per-shader L1 constant memory cache  (READ-ONLY) config  {<nsets>:<bsize>:<assoc>,<rep>:<wr>:<alloc>:<wr_alloc>,<mshr>:<N>:<merge>,<mq>} 
-gpgpu_cache:il1     4:128:4,L:R:f:N:L,A:2:32,4 # shader L1 instruction cache config  {<nsets>:<bsize>:<assoc>,<rep>:<wr>:<alloc>:<wr_alloc>,<mshr>:<N>:<merge>,<mq>} 
-gpgpu_cache:dl1     32:128:4,L:L:m:N:H,A:32:8,8 # per-shader L1 data cache config  {<nsets>:<bsize>:<assoc>,<rep>:<wr>:<alloc>:<wr_alloc>,<mshr>:<N>:<merge>,<mq> | none}
-gpgpu_cache:dl1PrefL1                 none # per-shader L1 data cache config  {<nsets>:<bsize>:<assoc>,<rep>:<wr>:<alloc>:<wr_alloc>,<mshr>:<N>:<merge>,<mq> | none}
-gpgpu_cache:dl1PreShared                 none # per-shader L1 data cache config  {<nsets>:<bsize>:<assoc>,<rep>:<wr>:<alloc>:<wr_alloc>,<mshr>:<N>:<merge>,<mq> | none}
-gmem_skip_L1D                          0 # global memory access skip L1D cache (implements -Xptxas -dlcm=cg, default=no skip)
-gpgpu_perfect_mem                      0 # enable perfect memory mode (no cache miss)
-n_regfile_gating_group                    4 # group of lanes that should be read/written together)
-gpgpu_clock_gated_reg_file                    0 # enable clock gated reg file for power calculations
-gpgpu_clock_gated_lanes                    0 # enable clock gated lanes for power calculations
-gpgpu_shader_registers                32768 # Number of registers per shader core. Limits number of concurrent CTAs. (default 8192)
-gpgpu_shader_cta                       8 # Maximum number of concurrent CTAs in shader (default 8)
-gpgpu_num_cta_barriers                   16 # Maximum number of named barriers per CTA (default 16)
-gpgpu_n_clusters                      15 # number of processing clusters
-gpgpu_n_cores_per_cluster                    1 # number of simd cores per cluster
-gpgpu_n_cluster_ejection_buffer_size                    8 # number of packets in ejection buffer
-gpgpu_n_ldst_response_buffer_size                    2 # number of response packets in ld/st unit ejection buffer
-gpgpu_shmem_size                   16384 # Size of shared memory per shader core (default 16kB)
-gpgpu_shmem_size                   49152 # Size of shared memory per shader core (default 16kB)
-gpgpu_shmem_size_PrefL1                16384 # Size of shared memory per shader core (default 16kB)
-gpgpu_shmem_size_PrefShared                16384 # Size of shared memory per shader core (default 16kB)
-gpgpu_shmem_num_banks                   32 # Number of banks in the shared memory in each shader core (default 16)
-gpgpu_shmem_limited_broadcast                    0 # Limit shared memory to do one broadcast per cycle (default on)
-gpgpu_shmem_warp_parts                    1 # Number of portions a warp is divided into for shared memory bank conflict check 
-gpgpu_warpdistro_shader                   -1 # Specify which shader core to collect the warp size distribution from
-gpgpu_warp_issue_shader                    0 # Specify which shader core to collect the warp issue distribution from
-gpgpu_local_mem_map                    1 # Mapping from local memory space address to simulated GPU physical address space (default = enabled)
-gpgpu_num_reg_banks                   16 # Number of register banks (default = 8)
-gpgpu_reg_bank_use_warp_id                    0 # Use warp ID in mapping registers to banks (default = off)
-gpgpu_operand_collector_num_units_sp                    6 # number of collector units (default = 4)
-gpgpu_operand_collector_num_units_sfu                    8 # number of collector units (default = 4)
-gpgpu_operand_collector_num_units_mem                    2 # number of collector units (default = 2)
-gpgpu_operand_collector_num_units_gen                    0 # number of collector units (default = 0)
-gpgpu_operand_collector_num_in_ports_sp                    2 # number of collector unit in ports (default = 1)
-gpgpu_operand_collector_num_in_ports_sfu                    1 # number of collector unit in ports (default = 1)
-gpgpu_operand_collector_num_in_ports_mem                    1 # number of collector unit in ports (default = 1)
-gpgpu_operand_collector_num_in_ports_gen                    0 # number of collector unit in ports (default = 0)
-gpgpu_operand_collector_num_out_ports_sp                    2 # number of collector unit in ports (default = 1)
-gpgpu_operand_collector_num_out_ports_sfu                    1 # number of collector unit in ports (default = 1)
-gpgpu_operand_collector_num_out_ports_mem                    1 # number of collector unit in ports (default = 1)
-gpgpu_operand_collector_num_out_ports_gen                    0 # number of collector unit in ports (default = 0)
-gpgpu_coalesce_arch                   13 # Coalescing arch (default = 13, anything else is off for now)
-gpgpu_num_sched_per_core                    2 # Number of warp schedulers per core
-gpgpu_max_insn_issue_per_warp                    1 # Max number of instructions that can be issued per warp in one cycle by scheduler
-gpgpu_simt_core_sim_order                    1 # Select the simulation order of cores in a cluster (0=Fix, 1=Round-Robin)
-gpgpu_pipeline_widths        2,1,1,2,1,1,2 # Pipeline widths ID_OC_SP,ID_OC_SFU,ID_OC_MEM,OC_EX_SP,OC_EX_SFU,OC_EX_MEM,EX_WB
-gpgpu_num_sp_units                     2 # Number of SP units (default=1)
-gpgpu_num_sfu_units                    1 # Number of SF units (default=1)
-gpgpu_num_mem_units                    1 # Number if ldst units (default=1) WARNING: not hooked up to anything
-gpgpu_scheduler                      gto # Scheduler configuration: < lrr | gto | two_level_active > If two_level_active:<num_active_warps>:<inner_prioritization>:<outer_prioritization>For complete list of prioritization values see shader.h enum scheduler_prioritization_typeDefault: gto
-gpgpu_dram_scheduler                    1 # 0 = fifo, 1 = FR-FCFS (defaul)
-gpgpu_dram_partition_queues              8:8:8:8 # i2$:$2d:d2$:$2i
-l2_ideal                               0 # Use a ideal L2 cache that always hit
-gpgpu_cache:dl2     64:128:8,L:B:m:W:L,A:32:4,4:0,32 # unified banked L2 data cache config  {<nsets>:<bsize>:<assoc>,<rep>:<wr>:<alloc>:<wr_alloc>,<mshr>:<N>:<merge>,<mq>}
-gpgpu_cache:dl2_texture_only                    0 # L2 cache used for texture only
-gpgpu_n_mem                            6 # number of memory modules (e.g. memory controllers) in gpu
-gpgpu_n_sub_partition_per_mchannel                    2 # number of memory subpartition in each memory module
-gpgpu_n_mem_per_ctrlr                    2 # number of memory chips per memory controller
-gpgpu_memlatency_stat                   14 # track and display latency statistics 0x2 enables MC, 0x4 enables queue logs
-gpgpu_frfcfs_dram_sched_queue_size                   16 # 0 = unlimited (default); # entries per chip
-gpgpu_dram_return_queue_size                  116 # 0 = unlimited (default); # entries per chip
-gpgpu_dram_buswidth                    4 # default = 4 bytes (8 bytes per cycle at DDR)
-gpgpu_dram_burst_length                    8 # Burst length of each DRAM request (default = 4 data bus cycle)
-dram_data_command_freq_ratio                    4 # Frequency ratio between DRAM data bus and command bus (default = 2 times, i.e. DDR)
-gpgpu_dram_timing_opt nbk=16:CCD=2:RRD=6:RCD=12:RAS=28:RP=12:RC=40: CL=12:WL=4:CDLR=5:WR=12:nbkgrp=4:CCDL=3:RTPL=2 # DRAM timing parameters = {nbk:tCCD:tRRD:tRCD:tRAS:tRP:tRC:CL:WL:tCDLR:tWR:nbkgrp:tCCDL:tRTPL}
-rop_latency                          120 # ROP queue latency (default 85)
-dram_latency                         100 # DRAM latency (default 30)
-gpgpu_mem_addr_mapping dramid@8;00000000.00000000.00000000.00000000.0000RRRR.RRRRRRRR.BBBCCCCB.CCSSSSSS # mapping memory address to dram model {dramid@<start bit>;<memory address map>}
-gpgpu_mem_addr_test                    0 # run sweep test to check address mapping for aliased address
-gpgpu_mem_address_mask                    1 # 0 = old addressing mask, 1 = new addressing mask, 2 = new add. mask + flipped bank sel and chip sel bits
-gpuwattch_xml_file  gpuwattch_gtx480.xml # GPUWattch XML file
-power_simulation_enabled                    1 # Turn on power simulator (1=On, 0=Off)
-power_per_cycle_dump                    0 # Dump detailed power output each cycle
-power_trace_enabled                    0 # produce a file for the power trace (1=On, 0=Off)
-power_trace_zlevel                     6 # Compression level of the power trace output log (0=no comp, 9=highest)
-steady_power_levels_enabled                    0 # produce a file for the steady power levels (1=On, 0=Off)
-steady_state_definition                  8:4 # allowed deviation:number of samples
-gpgpu_max_cycle                        0 # terminates gpu simulation early (0 = no limit)
-gpgpu_max_insn                         0 # terminates gpu simulation early (0 = no limit)
-gpgpu_max_cta                          0 # terminates gpu simulation early (0 = no limit)
-gpgpu_runtime_stat                   500 # display runtime statistics such as dram utilization {<freq>:<flag>}
-liveness_message_freq                    1 # Minimum number of seconds between simulation liveness messages (0 = always print)
-gpgpu_flush_l1_cache                    0 # Flush L1 cache at the end of each kernel call
-gpgpu_flush_l2_cache                    0 # Flush L2 cache at the end of each kernel call
-gpgpu_deadlock_detect                    1 # Stop the simulation at deadlock (1=on (default), 0=off)
-gpgpu_ptx_instruction_classification                    0 # if enabled will classify ptx instruction types per kernel (Max 255 kernels now)
-gpgpu_ptx_sim_mode                     0 # Select between Performance (default) or Functional simulation (1)
-gpgpu_clock_domains 700.0:700.0:700.0:924.0 # Clock Domain Frequencies in MhZ {<Core Clock>:<ICNT Clock>:<L2 Clock>:<DRAM Clock>}
-gpgpu_max_concurrent_kernel                    8 # maximum kernels that can run concurrently on GPU
-gpgpu_cflog_interval                    0 # Interval between each snapshot in control flow logger
-visualizer_enabled                     0 # Turn on visualizer output (1=On, 0=Off)
-visualizer_outputfile                 NULL # Specifies the output log file for visualizer
-visualizer_zlevel                      6 # Compression level of the visualizer output log (0=no comp, 9=highest)
-trace_enabled                          0 # Turn on traces
-trace_components                    none # comma seperated list of traces to enable. Complete list found in trace_streams.tup. Default none
-trace_sampling_core                    0 # The core which is printed using CORE_DPRINTF. Default 0
-trace_sampling_memory_partition                   -1 # The memory partition which is printed using MEMPART_DPRINTF. Default -1 (i.e. all)
-enable_ptx_file_line_stats                    1 # Turn on PTX source line statistic profiling. (1 = On)
-ptx_line_stats_filename gpgpu_inst_stats.txt # Output file for PTX source line statistics.
-save_embedded_ptx                      0 # saves ptx files embedded in binary as <n>.ptx
-keep                                   0 # keep intermediate files created by GPGPU-Sim when interfacing with external programs
-gpgpu_ptx_save_converted_ptxplus                    0 # Saved converted ptxplus to a file
-ptx_opcode_latency_int         4,13,4,5,145 # Opcode latencies for integers <ADD,MAX,MUL,MAD,DIV>Default 1,1,19,25,145
-ptx_opcode_latency_fp          4,13,4,5,39 # Opcode latencies for single precision floating points <ADD,MAX,MUL,MAD,DIV>Default 1,1,1,1,30
-ptx_opcode_latency_dp         8,19,8,8,330 # Opcode latencies for double precision floating points <ADD,MAX,MUL,MAD,DIV>Default 8,8,8,8,335
-ptx_opcode_initiation_int            1,2,2,1,8 # Opcode initiation intervals for integers <ADD,MAX,MUL,MAD,DIV>Default 1,1,4,4,32
-ptx_opcode_initiation_fp            1,2,1,1,4 # Opcode initiation intervals for single precision floating points <ADD,MAX,MUL,MAD,DIV>Default 1,1,1,1,5
-ptx_opcode_initiation_dp         8,16,8,8,130 # Opcode initiation intervals for double precision floating points <ADD,MAX,MUL,MAD,DIV>Default 8,8,8,8,130
DRAM Timing Options:
nbk                                    16 # number of banks
CCD                                     2 # column to column delay
RRD                                     6 # minimal delay between activation of rows in different banks
RCD                                    12 # row to column delay
RAS                                    28 # time needed to activate row
RP                                     12 # time needed to precharge (deactivate) row
RC                                     40 # row cycle time
CDLR                                    5 # switching from write to read (changes tWTR)
WR                                     12 # last data-in to row precharge
CL                                     12 # CAS latency
WL                                      4 # Write latency
nbkgrp                                  4 # number of bank groups
CCDL                                    3 # column to column delay between accesses to different bank groups
RTPL                                    2 # read to precharge delay between accesses to different bank groups
Total number of memory sub partition = 12
addr_dec_mask[CHIP]  = 0000000000000000 	high:64 low:0
addr_dec_mask[BK]    = 000000000000e100 	high:16 low:8
addr_dec_mask[ROW]   = 000000000fff0000 	high:28 low:16
addr_dec_mask[COL]   = 0000000000001eff 	high:13 low:0
addr_dec_mask[BURST] = 000000000000003f 	high:6 low:0
sub_partition_id_mask = 0000000000000100
GPGPU-Sim uArch: clock freqs: 700000000.000000:700000000.000000:700000000.000000:924000000.000000
GPGPU-Sim uArch: clock periods: 0.00000000142857142857:0.00000000142857142857:0.00000000142857142857:0.00000000108225108225
*** Initializing Memory Statistics ***
GPGPU-Sim uArch: interconnect node map (shaderID+MemID to icntID)
GPGPU-Sim uArch: Memory nodes ID start from index: 15
GPGPU-Sim uArch:    0   1   2   3   4
GPGPU-Sim uArch:    5   6   7   8   9
GPGPU-Sim uArch:   10  11  12  13  14
GPGPU-Sim uArch:   15  16  17  18  19
GPGPU-Sim uArch:   20  21  22  23  24
GPGPU-Sim uArch:   25  26
GPGPU-Sim uArch: interconnect node reverse map (icntID to shaderID+MemID)
GPGPU-Sim uArch: Memory nodes start from ID: 15
GPGPU-Sim uArch:    0   1   2   3   4
GPGPU-Sim uArch:    5   6   7   8   9
GPGPU-Sim uArch:   10  11  12  13  14
GPGPU-Sim uArch:   15  16  17  18  19
GPGPU-Sim uArch:   20  21  22  23  24
GPGPU-Sim uArch:   25  26
9bcf07b21a1af5731ff4802ff1159c81  /root/reduction-berserker1/reduction
GPGPU-Sim uArch: performance model initialization complete.
GPGPU-Sim PTX: __cudaRegisterFatBinary, fat_cubin_handle = 1, filename=main.cu
self exe links to: /root/reduction-berserker1/reduction
Running md5sum using "md5sum /root/reduction-berserker1/reduction "
Running cuobjdump using "$CUDA_INSTALL_PATH/bin/cuobjdump -ptx -elf -sass /root/reduction-berserker1/reduction > _cuobjdump_complete_output_675YJf"
Parsing file _cuobjdump_complete_output_675YJf
######### cuobjdump parser ########
## Adding new section ELF
Adding arch: sm_10
Adding identifier: main.cu
## Adding new section PTX
Adding ptx filename: _cuobjdump_1.ptx
Adding arch: sm_10
Adding identifier: main.cu
## Adding new section ELF
Adding arch: sm_10
Adding identifier: support.cu
## Adding new section PTX
Adding ptx filename: _cuobjdump_2.ptx
Adding arch: sm_10
Adding identifier: support.cu
Done parsing!!!
GPGPU-Sim PTX: __cudaRegisterFunction _Z18optimizedReductionPfS_j : hostFun 0x0x400ed0, fat_cubin_handle = 1
GPGPU-Sim PTX: allocating shared region for "__cuda___cuda_local_var_31385_35_non_const_partialsum20" from 0x0 to 0x1000 (shared memory space)
GPGPU-Sim PTX: instruction assembly for function '_Z14naiveReductionPfS_j'...   done.
GPGPU-Sim PTX: finding reconvergence points for '_Z14naiveReductionPfS_j'...
GPGPU-Sim PTX: Finding dominators for '_Z14naiveReductionPfS_j'...
GPGPU-Sim PTX: Finding immediate dominators for '_Z14naiveReductionPfS_j'...
GPGPU-Sim PTX: Finding postdominators for '_Z14naiveReductionPfS_j'...
GPGPU-Sim PTX: Finding immediate postdominators for '_Z14naiveReductionPfS_j'...
GPGPU-Sim PTX: pre-decoding instructions for '_Z14naiveReductionPfS_j'...
GPGPU-Sim PTX: reconvergence points for _Z14naiveReductionPfS_j...
GPGPU-Sim PTX:  1 (potential) branch divergence @  PC=0x040 (_1.ptx:70) @%p1 bra $Lt_0_6146;
GPGPU-Sim PTX:    immediate post dominator      @  PC=0x098 (_1.ptx:83) mov.u64 %rd1, __cuda___cuda_local_var_31385_35_non_const_partialsum20;
GPGPU-Sim PTX:  2 (potential) branch divergence @  PC=0x0b8 (_1.ptx:89) @%p2 bra $Lt_0_6658;
GPGPU-Sim PTX:    immediate post dominator      @  PC=0x110 (_1.ptx:103) bar.sync 0;
GPGPU-Sim PTX:  3 (potential) branch divergence @  PC=0x128 (_1.ptx:106) @%p3 bra $Lt_0_7170;
GPGPU-Sim PTX:    immediate post dominator      @  PC=0x248 (_1.ptx:151) mov.u32 %r26, 0;
GPGPU-Sim PTX:  4 (potential) branch divergence @  PC=0x150 (_1.ptx:113) @%p4 bra $Lt_0_7938;
GPGPU-Sim PTX:    immediate post dominator      @  PC=0x228 (_1.ptx:145) bar.sync 0;
GPGPU-Sim PTX:  5 (potential) branch divergence @  PC=0x178 (_1.ptx:118) @%p5 bra $Lt_0_8450;
GPGPU-Sim PTX:    immediate post dominator      @  PC=0x228 (_1.ptx:145) bar.sync 0;
GPGPU-Sim PTX:  6 (potential) branch divergence @  PC=0x1d0 (_1.ptx:129) @%p6 bra $Lt_0_8962;
GPGPU-Sim PTX:    immediate post dominator      @  PC=0x228 (_1.ptx:145) bar.sync 0;
GPGPU-Sim PTX:  7 (potential) branch divergence @  PC=0x240 (_1.ptx:149) @%p7 bra $Lt_0_7682;
GPGPU-Sim PTX:    immediate post dominator      @  PC=0x248 (_1.ptx:151) mov.u32 %r26, 0;
GPGPU-Sim PTX:  8 (potential) branch divergence @  PC=0x258 (_1.ptx:153) @%p8 bra $Lt_0_9730;
GPGPU-Sim PTX:    immediate post dominator      @  PC=0x290 (_1.ptx:163) exit;
GPGPU-Sim PTX: ... end of reconvergence points for _Z14naiveReductionPfS_j
GPGPU-Sim PTX: ... done pre-decoding instructions for '_Z14naiveReductionPfS_j'.
GPGPU-Sim PTX: allocating shared region for "__cuda___cuda_local_var_31445_35_non_const_partialsum4140" from 0x0 to 0x1000 (shared memory space)
GPGPU-Sim PTX: instruction assembly for function '_Z18optimizedReductionPfS_j'...   done.
GPGPU-Sim PTX: finding reconvergence points for '_Z18optimizedReductionPfS_j'...
GPGPU-Sim PTX: Finding dominators for '_Z18optimizedReductionPfS_j'...
GPGPU-Sim PTX: Finding immediate dominators for '_Z18optimizedReductionPfS_j'...
GPGPU-Sim PTX: Finding postdominators for '_Z18optimizedReductionPfS_j'...
GPGPU-Sim PTX: Finding immediate postdominators for '_Z18optimizedReductionPfS_j'...
GPGPU-Sim PTX: pre-decoding instructions for '_Z18optimizedReductionPfS_j'...
GPGPU-Sim PTX: reconvergence points for _Z18optimizedReductionPfS_j...
GPGPU-Sim PTX:  1 (potential) branch divergence @  PC=0x2d8 (_1.ptx:187) @%p1 bra $Lt_1_4610;
GPGPU-Sim PTX:    immediate post dominator      @  PC=0x330 (_1.ptx:200) mov.u64 %rd1, __cuda___cuda_local_var_31445_35_non_const_partialsum4140;
GPGPU-Sim PTX:  2 (potential) branch divergence @  PC=0x350 (_1.ptx:206) @%p2 bra $Lt_1_5122;
GPGPU-Sim PTX:    immediate post dominator      @  PC=0x3a8 (_1.ptx:220) bar.sync 0;
GPGPU-Sim PTX:  3 (potential) branch divergence @  PC=0x3c8 (_1.ptx:225) @%p3 bra $Lt_1_5634;
GPGPU-Sim PTX:    immediate post dominator      @  PC=0x498 (_1.ptx:257) mov.u32 %r21, 0;
GPGPU-Sim PTX:  4 (potential) branch divergence @  PC=0x410 (_1.ptx:235) @%p4 bra $Lt_1_6402;
GPGPU-Sim PTX:    immediate post dominator      @  PC=0x470 (_1.ptx:250) bar.sync 0;
GPGPU-Sim PTX:  5 (potential) branch divergence @  PC=0x490 (_1.ptx:255) @%p5 bra $Lt_1_6146;
GPGPU-Sim PTX:    immediate post dominator      @  PC=0x498 (_1.ptx:257) mov.u32 %r21, 0;
GPGPU-Sim PTX:  6 (potential) branch divergence @  PC=0x4a8 (_1.ptx:259) @%p6 bra $Lt_1_7170;
GPGPU-Sim PTX:    immediate post dominator      @  PC=0x4e0 (_1.ptx:269) exit;
GPGPU-Sim PTX: ... end of reconvergence points for _Z18optimizedReductionPfS_j
GPGPU-Sim PTX: ... done pre-decoding instructions for '_Z18optimizedReductionPfS_j'.
GPGPU-Sim PTX: finished parsing EMBEDDED .ptx file _1.ptx
Adding _cuobjdump_1.ptx with cubin handle 1
GPGPU-Sim PTX: extracting embedded .ptx to temporary file "_ptx_EPcUZo"
Running: cat _ptx_EPcUZo | sed 's/.version 1.5/.version 1.4/' | sed 's/, texmode_independent//' | sed 's/\(\.extern \.const\[1\] .b8 \w\+\)\[\]/\1\[1\]/' | sed 's/const\[.\]/const\[0\]/g' > _ptx2_K9dQfy
GPGPU-Sim PTX: generating ptxinfo using "$CUDA_INSTALL_PATH/bin/ptxas --gpu-name=sm_20 -v _ptx2_K9dQfy --output-file  /dev/null 2> _ptx_EPcUZoinfo"
GPGPU-Sim PTX: Kernel '_Z18optimizedReductionPfS_j' : regs=10, lmem=0, smem=4096, cmem=52
GPGPU-Sim PTX: Kernel '_Z14naiveReductionPfS_j' : regs=10, lmem=0, smem=4096, cmem=52
GPGPU-Sim PTX: removing ptxinfo using "rm -f _ptx_EPcUZo _ptx2_K9dQfy _ptx_EPcUZoinfo"
GPGPU-Sim PTX: loading globals with explicit initializers... 
GPGPU-Sim PTX: finished loading globals (0 bytes total).
GPGPU-Sim PTX: loading constants with explicit initializers...  done.
GPGPU-Sim PTX: __cudaRegisterFunction _Z14naiveReductionPfS_j : hostFun 0x0x400f50, fat_cubin_handle = 1
GPGPU-Sim PTX: __cudaRegisterFatBinary, fat_cubin_handle = 2, filename=support.cu

Setting up the problem...0.093531 s
    Input size = 1000000
Allocating device variables...Pointer 80000000, 803d0900
0.000087 s
Copying data from host to device...0.319205 s
Launching kernel...Running Naive Reduction

GPGPU-Sim PTX: cudaLaunch for 0x0x400f50 (mode=performance simulation) on stream 0
GPGPU-Sim PTX: pushing kernel '_Z14naiveReductionPfS_j' to stream 0, gridDim= (977,1,1) blockDim = (512,1,1) 
kernel '_Z14naiveReductionPfS_j' transfer to GPU hardware scheduler
GPGPU-Sim uArch: Shader 1 bind to kernel 1 '_Z14naiveReductionPfS_j'
GPGPU-Sim uArch: CTA/core = 3, limited by: threads
GPGPU-Sim uArch: core:  1, cta: 0 initialized @(1,0)
GPGPU-Sim uArch: Shader 2 bind to kernel 1 '_Z14naiveReductionPfS_j'
GPGPU-Sim uArch: core:  2, cta: 0 initialized @(1,0)
GPGPU-Sim uArch: Shader 3 bind to kernel 1 '_Z14naiveReductionPfS_j'
GPGPU-Sim uArch: core:  3, cta: 0 initialized @(1,0)
GPGPU-Sim uArch: Shader 4 bind to kernel 1 '_Z14naiveReductionPfS_j'
GPGPU-Sim uArch: core:  4, cta: 0 initialized @(1,0)
GPGPU-Sim uArch: Shader 5 bind to kernel 1 '_Z14naiveReductionPfS_j'
GPGPU-Sim uArch: core:  5, cta: 0 initialized @(1,0)
GPGPU-Sim uArch: Shader 6 bind to kernel 1 '_Z14naiveReductionPfS_j'
GPGPU-Sim uArch: core:  6, cta: 0 initialized @(1,0)
GPGPU-Sim uArch: Shader 7 bind to kernel 1 '_Z14naiveReductionPfS_j'
GPGPU-Sim uArch: core:  7, cta: 0 initialized @(1,0)
GPGPU-Sim uArch: Shader 8 bind to kernel 1 '_Z14naiveReductionPfS_j'
GPGPU-Sim uArch: core:  8, cta: 0 initialized @(1,0)
GPGPU-Sim uArch: Shader 9 bind to kernel 1 '_Z14naiveReductionPfS_j'
GPGPU-Sim uArch: core:  9, cta: 0 initialized @(1,0)
GPGPU-Sim uArch: Shader 10 bind to kernel 1 '_Z14naiveReductionPfS_j'
GPGPU-Sim uArch: core: 10, cta: 0 initialized @(1,0)
GPGPU-Sim uArch: Shader 11 bind to kernel 1 '_Z14naiveReductionPfS_j'
GPGPU-Sim uArch: core: 11, cta: 0 initialized @(1,0)
GPGPU-Sim uArch: Shader 12 bind to kernel 1 '_Z14naiveReductionPfS_j'
GPGPU-Sim uArch: core: 12, cta: 0 initialized @(1,0)
GPGPU-Sim uArch: Shader 13 bind to kernel 1 '_Z14naiveReductionPfS_j'
GPGPU-Sim uArch: core: 13, cta: 0 initialized @(1,0)
GPGPU-Sim uArch: Shader 14 bind to kernel 1 '_Z14naiveReductionPfS_j'
GPGPU-Sim uArch: core: 14, cta: 0 initialized @(1,0)
GPGPU-Sim uArch: Shader 0 bind to kernel 1 '_Z14naiveReductionPfS_j'
GPGPU-Sim uArch: core:  0, cta: 0 initialized @(1,0)
GPGPU-Sim uArch: core:  1, cta: 1 initialized @(2,0)
GPGPU-Sim uArch: core:  2, cta: 1 initialized @(2,0)
GPGPU-Sim uArch: core:  3, cta: 1 initialized @(2,0)
GPGPU-Sim uArch: core:  4, cta: 1 initialized @(2,0)
GPGPU-Sim uArch: core:  5, cta: 1 initialized @(2,0)
GPGPU-Sim uArch: core:  6, cta: 1 initialized @(2,0)
GPGPU-Sim uArch: core:  7, cta: 1 initialized @(2,0)
GPGPU-Sim uArch: core:  8, cta: 1 initialized @(2,0)
GPGPU-Sim uArch: core:  9, cta: 1 initialized @(2,0)
GPGPU-Sim uArch: core: 10, cta: 1 initialized @(2,0)
GPGPU-Sim uArch: core: 11, cta: 1 initialized @(2,0)
GPGPU-Sim uArch: core: 12, cta: 1 initialized @(2,0)
GPGPU-Sim uArch: core: 13, cta: 1 initialized @(2,0)
GPGPU-Sim uArch: core: 14, cta: 1 initialized @(2,0)
GPGPU-Sim uArch: core:  0, cta: 1 initialized @(2,0)
GPGPU-Sim uArch: core:  1, cta: 2 initialized @(3,0)
GPGPU-Sim uArch: core:  2, cta: 2 initialized @(3,0)
GPGPU-Sim uArch: core:  3, cta: 2 initialized @(3,0)
GPGPU-Sim uArch: core:  4, cta: 2 initialized @(3,0)
GPGPU-Sim uArch: core:  5, cta: 2 initialized @(3,0)
GPGPU-Sim uArch: core:  6, cta: 2 initialized @(3,0)
GPGPU-Sim uArch: core:  7, cta: 2 initialized @(3,0)
GPGPU-Sim uArch: core:  8, cta: 2 initialized @(3,0)
GPGPU-Sim uArch: core:  9, cta: 2 initialized @(3,0)
GPGPU-Sim uArch: core: 10, cta: 2 initialized @(3,0)
GPGPU-Sim uArch: core: 11, cta: 2 initialized @(3,0)
GPGPU-Sim uArch: core: 12, cta: 2 initialized @(3,0)
GPGPU-Sim uArch: core: 13, cta: 2 initialized @(3,0)
GPGPU-Sim uArch: core: 14, cta: 2 initialized @(3,0)
GPGPU-Sim uArch: core:  0, cta: 2 initialized @(3,0)
GPGPU-Sim PTX: 100000 instructions simulated : ctaid=(27,0,0) tid=(63,0,0)
GPGPU-Sim uArch: cycles simulated: 500  inst.: 103904 (ipc=207.8) sim_rate=51952 (inst/sec) elapsed = 0:0:00:02 / Tue Oct 31 01:31:03 2023
GPGPU-Sim PTX: 200000 instructions simulated : ctaid=(5,0,0) tid=(255,0,0)
GPGPU-Sim PTX: 300000 instructions simulated : ctaid=(34,0,0) tid=(447,0,0)
GPGPU-Sim uArch: cycles simulated: 1000  inst.: 304544 (ipc=304.5) sim_rate=101514 (inst/sec) elapsed = 0:0:00:03 / Tue Oct 31 01:31:04 2023
GPGPU-Sim PTX: 400000 instructions simulated : ctaid=(5,0,0) tid=(95,0,0)
GPGPU-Sim PTX: 500000 instructions simulated : ctaid=(42,0,0) tid=(127,0,0)
GPGPU-Sim PTX: 600000 instructions simulated : ctaid=(15,0,0) tid=(415,0,0)
GPGPU-Sim uArch: cycles simulated: 1500  inst.: 550208 (ipc=366.8) sim_rate=110041 (inst/sec) elapsed = 0:0:00:05 / Tue Oct 31 01:31:06 2023
GPGPU-Sim PTX: 700000 instructions simulated : ctaid=(0,0,0) tid=(255,0,0)
GPGPU-Sim PTX: 800000 instructions simulated : ctaid=(0,0,0) tid=(351,0,0)
GPGPU-Sim uArch: cycles simulated: 2000  inst.: 803520 (ipc=401.8) sim_rate=133920 (inst/sec) elapsed = 0:0:00:06 / Tue Oct 31 01:31:07 2023
GPGPU-Sim PTX: 900000 instructions simulated : ctaid=(26,0,0) tid=(159,0,0)
GPGPU-Sim PTX: 1000000 instructions simulated : ctaid=(2,0,0) tid=(447,0,0)
GPGPU-Sim PTX: 1100000 instructions simulated : ctaid=(29,0,0) tid=(127,0,0)
GPGPU-Sim PTX: 1200000 instructions simulated : ctaid=(26,0,0) tid=(351,0,0)
GPGPU-Sim uArch: cycles simulated: 2500  inst.: 1114656 (ipc=445.9) sim_rate=159236 (inst/sec) elapsed = 0:0:00:07 / Tue Oct 31 01:31:08 2023
GPGPU-Sim PTX: 1300000 instructions simulated : ctaid=(38,0,0) tid=(447,0,0)
GPGPU-Sim PTX: 1400000 instructions simulated : ctaid=(3,0,0) tid=(159,0,0)
GPGPU-Sim PTX: 1500000 instructions simulated : ctaid=(0,0,0) tid=(191,0,0)
GPGPU-Sim PTX: 1600000 instructions simulated : ctaid=(9,0,0) tid=(94,0,0)
GPGPU-Sim uArch: cycles simulated: 3000  inst.: 1461056 (ipc=487.0) sim_rate=182632 (inst/sec) elapsed = 0:0:00:08 / Tue Oct 31 01:31:09 2023
GPGPU-Sim PTX: 1700000 instructions simulated : ctaid=(17,0,0) tid=(222,0,0)
GPGPU-Sim PTX: 1800000 instructions simulated : ctaid=(13,0,0) tid=(367,0,0)
GPGPU-Sim uArch: cycles simulated: 3500  inst.: 1690272 (ipc=482.9) sim_rate=169027 (inst/sec) elapsed = 0:0:00:10 / Tue Oct 31 01:31:11 2023
GPGPU-Sim PTX: 1900000 instructions simulated : ctaid=(5,0,0) tid=(508,0,0)
GPGPU-Sim PTX: 2000000 instructions simulated : ctaid=(5,0,0) tid=(351,0,0)
GPGPU-Sim uArch: cycles simulated: 4000  inst.: 1898056 (ipc=474.5) sim_rate=172550 (inst/sec) elapsed = 0:0:00:11 / Tue Oct 31 01:31:12 2023
GPGPU-Sim PTX: 2100000 instructions simulated : ctaid=(17,0,0) tid=(183,0,0)
GPGPU-Sim PTX: 2200000 instructions simulated : ctaid=(8,0,0) tid=(403,0,0)
GPGPU-Sim uArch: cycles simulated: 4500  inst.: 2069318 (ipc=459.8) sim_rate=172443 (inst/sec) elapsed = 0:0:00:12 / Tue Oct 31 01:31:13 2023
GPGPU-Sim PTX: 2300000 instructions simulated : ctaid=(2,0,0) tid=(328,0,0)
GPGPU-Sim PTX: 2400000 instructions simulated : ctaid=(13,0,0) tid=(25,0,0)
GPGPU-Sim PTX: 2500000 instructions simulated : ctaid=(25,0,0) tid=(176,0,0)
GPGPU-Sim uArch: cycles simulated: 5500  inst.: 2384489 (ipc=433.5) sim_rate=183422 (inst/sec) elapsed = 0:0:00:13 / Tue Oct 31 01:31:14 2023
GPGPU-Sim PTX: 2600000 instructions simulated : ctaid=(6,0,0) tid=(72,0,0)
GPGPU-Sim PTX: 2700000 instructions simulated : ctaid=(44,0,0) tid=(430,0,0)
GPGPU-Sim PTX: 2800000 instructions simulated : ctaid=(16,0,0) tid=(334,0,0)
GPGPU-Sim uArch: cycles simulated: 6000  inst.: 2618310 (ipc=436.4) sim_rate=187022 (inst/sec) elapsed = 0:0:00:14 / Tue Oct 31 01:31:15 2023
GPGPU-Sim PTX: 2900000 instructions simulated : ctaid=(2,0,0) tid=(226,0,0)
GPGPU-Sim uArch: cycles simulated: 6500  inst.: 2778631 (ipc=427.5) sim_rate=185242 (inst/sec) elapsed = 0:0:00:15 / Tue Oct 31 01:31:16 2023
GPGPU-Sim PTX: 3000000 instructions simulated : ctaid=(29,0,0) tid=(33,0,0)
GPGPU-Sim PTX: 3100000 instructions simulated : ctaid=(29,0,0) tid=(337,0,0)
GPGPU-Sim uArch: cycles simulated: 7000  inst.: 2945341 (ipc=420.8) sim_rate=184083 (inst/sec) elapsed = 0:0:00:16 / Tue Oct 31 01:31:17 2023
GPGPU-Sim uArch: Shader 5 finished CTA #0 (7097,0), 2 CTAs running
GPGPU-Sim uArch: core:  5, cta: 0 initialized @(7098,0)
GPGPU-Sim uArch: Shader 4 finished CTA #0 (7106,0), 2 CTAs running
GPGPU-Sim uArch: core:  4, cta: 0 initialized @(7107,0)
GPGPU-Sim uArch: Shader 8 finished CTA #0 (7108,0), 2 CTAs running
GPGPU-Sim uArch: core:  8, cta: 0 initialized @(7109,0)
GPGPU-Sim uArch: Shader 1 finished CTA #0 (7111,0), 2 CTAs running
GPGPU-Sim uArch: Shader 2 finished CTA #0 (7111,0), 2 CTAs running
GPGPU-Sim uArch: core:  1, cta: 0 initialized @(7112,0)
GPGPU-Sim uArch: core:  2, cta: 0 initialized @(7112,0)
GPGPU-Sim uArch: Shader 9 finished CTA #0 (7117,0), 2 CTAs running
GPGPU-Sim uArch: core:  9, cta: 0 initialized @(7118,0)
GPGPU-Sim uArch: Shader 12 finished CTA #0 (7120,0), 2 CTAs running
GPGPU-Sim uArch: core: 12, cta: 0 initialized @(7121,0)
GPGPU-Sim uArch: Shader 13 finished CTA #0 (7123,0), 2 CTAs running
GPGPU-Sim uArch: core: 13, cta: 0 initialized @(7124,0)
GPGPU-Sim uArch: Shader 7 finished CTA #0 (7126,0), 2 CTAs running
GPGPU-Sim uArch: core:  7, cta: 0 initialized @(7127,0)
GPGPU-Sim uArch: Shader 6 finished CTA #0 (7127,0), 2 CTAs running
GPGPU-Sim uArch: core:  6, cta: 0 initialized @(7128,0)
GPGPU-Sim uArch: Shader 3 finished CTA #0 (7131,0), 2 CTAs running
GPGPU-Sim uArch: Shader 11 finished CTA #0 (7131,0), 2 CTAs running
GPGPU-Sim uArch: core: 11, cta: 0 initialized @(7132,0)
GPGPU-Sim uArch: core:  3, cta: 0 initialized @(7132,0)
GPGPU-Sim PTX: 3200000 instructions simulated : ctaid=(50,0,0) tid=(113,0,0)
GPGPU-Sim uArch: Shader 10 finished CTA #0 (7135,0), 2 CTAs running
GPGPU-Sim uArch: Shader 14 finished CTA #0 (7135,0), 2 CTAs running
GPGPU-Sim uArch: core: 10, cta: 0 initialized @(7136,0)
GPGPU-Sim uArch: core: 14, cta: 0 initialized @(7136,0)
GPGPU-Sim uArch: Shader 0 finished CTA #0 (7143,0), 2 CTAs running
GPGPU-Sim uArch: core:  0, cta: 0 initialized @(7144,0)
GPGPU-Sim PTX: 3300000 instructions simulated : ctaid=(56,0,0) tid=(503,0,0)
GPGPU-Sim uArch: cycles simulated: 7500  inst.: 3153447 (ipc=420.5) sim_rate=175191 (inst/sec) elapsed = 0:0:00:18 / Tue Oct 31 01:31:19 2023
GPGPU-Sim PTX: 3400000 instructions simulated : ctaid=(32,0,0) tid=(428,0,0)
GPGPU-Sim PTX: 3500000 instructions simulated : ctaid=(55,0,0) tid=(277,0,0)
GPGPU-Sim PTX: 3600000 instructions simulated : ctaid=(29,0,0) tid=(283,0,0)
GPGPU-Sim uArch: cycles simulated: 8000  inst.: 3397998 (ipc=424.7) sim_rate=178842 (inst/sec) elapsed = 0:0:00:19 / Tue Oct 31 01:31:20 2023
GPGPU-Sim PTX: 3700000 instructions simulated : ctaid=(23,0,0) tid=(246,0,0)
GPGPU-Sim PTX: 3800000 instructions simulated : ctaid=(54,0,0) tid=(332,0,0)
GPGPU-Sim uArch: cycles simulated: 8500  inst.: 3608692 (ipc=424.6) sim_rate=180434 (inst/sec) elapsed = 0:0:00:20 / Tue Oct 31 01:31:21 2023
GPGPU-Sim uArch: Shader 1 finished CTA #1 (8643,0), 2 CTAs running
GPGPU-Sim uArch: core:  1, cta: 1 initialized @(8644,0)
GPGPU-Sim PTX: 3900000 instructions simulated : ctaid=(60,0,0) tid=(138,0,0)
GPGPU-Sim uArch: Shader 9 finished CTA #1 (8683,0), 2 CTAs running
GPGPU-Sim uArch: core:  9, cta: 1 initialized @(8684,0)
GPGPU-Sim uArch: Shader 3 finished CTA #1 (8740,0), 2 CTAs running
GPGPU-Sim uArch: core:  3, cta: 1 initialized @(8741,0)
GPGPU-Sim uArch: Shader 13 finished CTA #1 (8767,0), 2 CTAs running
GPGPU-Sim uArch: core: 13, cta: 1 initialized @(8768,0)
GPGPU-Sim uArch: Shader 12 finished CTA #1 (8769,0), 2 CTAs running
GPGPU-Sim uArch: core: 12, cta: 1 initialized @(8770,0)
GPGPU-Sim uArch: Shader 4 finished CTA #1 (8773,0), 2 CTAs running
GPGPU-Sim uArch: core:  4, cta: 1 initialized @(8774,0)
GPGPU-Sim uArch: Shader 8 finished CTA #1 (8789,0), 2 CTAs running
GPGPU-Sim uArch: core:  8, cta: 1 initialized @(8790,0)
GPGPU-Sim uArch: Shader 6 finished CTA #1 (8797,0), 2 CTAs running
GPGPU-Sim uArch: core:  6, cta: 1 initialized @(8798,0)
GPGPU-Sim uArch: Shader 10 finished CTA #1 (8832,0), 2 CTAs running
GPGPU-Sim uArch: core: 10, cta: 1 initialized @(8833,0)
GPGPU-Sim uArch: Shader 11 finished CTA #1 (8844,0), 2 CTAs running
GPGPU-Sim uArch: core: 11, cta: 1 initialized @(8845,0)
GPGPU-Sim uArch: Shader 0 finished CTA #1 (8850,0), 2 CTAs running
GPGPU-Sim uArch: core:  0, cta: 1 initialized @(8851,0)
GPGPU-Sim uArch: Shader 5 finished CTA #1 (8854,0), 2 CTAs running
GPGPU-Sim uArch: core:  5, cta: 1 initialized @(8855,0)
GPGPU-Sim uArch: Shader 2 finished CTA #1 (8873,0), 2 CTAs running
GPGPU-Sim uArch: core:  2, cta: 1 initialized @(8874,0)
GPGPU-Sim PTX: 4000000 instructions simulated : ctaid=(36,0,0) tid=(32,0,0)
GPGPU-Sim uArch: Shader 14 finished CTA #1 (8886,0), 2 CTAs running
GPGPU-Sim uArch: core: 14, cta: 1 initialized @(8887,0)
GPGPU-Sim uArch: Shader 7 finished CTA #1 (8964,0), 2 CTAs running
GPGPU-Sim uArch: core:  7, cta: 1 initialized @(8965,0)
GPGPU-Sim uArch: cycles simulated: 9000  inst.: 3801377 (ipc=422.4) sim_rate=181017 (inst/sec) elapsed = 0:0:00:21 / Tue Oct 31 01:31:22 2023
GPGPU-Sim PTX: 4100000 instructions simulated : ctaid=(55,0,0) tid=(90,0,0)
GPGPU-Sim PTX: 4200000 instructions simulated : ctaid=(51,0,0) tid=(68,0,0)
GPGPU-Sim PTX: 4300000 instructions simulated : ctaid=(53,0,0) tid=(289,0,0)
GPGPU-Sim uArch: cycles simulated: 9500  inst.: 4071371 (ipc=428.6) sim_rate=185062 (inst/sec) elapsed = 0:0:00:22 / Tue Oct 31 01:31:23 2023
GPGPU-Sim PTX: 4400000 instructions simulated : ctaid=(59,0,0) tid=(498,0,0)
GPGPU-Sim PTX: 4500000 instructions simulated : ctaid=(44,0,0) tid=(490,0,0)
GPGPU-Sim PTX: 4600000 instructions simulated : ctaid=(67,0,0) tid=(289,0,0)
GPGPU-Sim uArch: cycles simulated: 10000  inst.: 4361157 (ipc=436.1) sim_rate=181714 (inst/sec) elapsed = 0:0:00:24 / Tue Oct 31 01:31:25 2023
GPGPU-Sim PTX: 4700000 instructions simulated : ctaid=(34,0,0) tid=(149,0,0)
GPGPU-Sim PTX: 4800000 instructions simulated : ctaid=(69,0,0) tid=(356,0,0)
GPGPU-Sim PTX: 4900000 instructions simulated : ctaid=(43,0,0) tid=(370,0,0)
GPGPU-Sim uArch: cycles simulated: 10500  inst.: 4626467 (ipc=440.6) sim_rate=185058 (inst/sec) elapsed = 0:0:00:25 / Tue Oct 31 01:31:26 2023
GPGPU-Sim PTX: 5000000 instructions simulated : ctaid=(45,0,0) tid=(264,0,0)
GPGPU-Sim uArch: Shader 2 finished CTA #2 (10813,0), 2 CTAs running
GPGPU-Sim uArch: core:  2, cta: 2 initialized @(10814,0)
GPGPU-Sim uArch: Shader 3 finished CTA #2 (10863,0), 2 CTAs running
GPGPU-Sim uArch: core:  3, cta: 2 initialized @(10864,0)
GPGPU-Sim uArch: Shader 0 finished CTA #2 (10872,0), 2 CTAs running
GPGPU-Sim uArch: core:  0, cta: 2 initialized @(10873,0)
GPGPU-Sim uArch: Shader 1 finished CTA #2 (10878,0), 2 CTAs running
GPGPU-Sim uArch: Shader 4 finished CTA #2 (10878,0), 2 CTAs running
GPGPU-Sim uArch: core:  1, cta: 2 initialized @(10879,0)
GPGPU-Sim uArch: core:  4, cta: 2 initialized @(10879,0)
GPGPU-Sim PTX: 5100000 instructions simulated : ctaid=(58,0,0) tid=(380,0,0)
GPGPU-Sim uArch: Shader 5 finished CTA #2 (10889,0), 2 CTAs running
GPGPU-Sim uArch: core:  5, cta: 2 initialized @(10890,0)
GPGPU-Sim uArch: Shader 14 finished CTA #2 (10909,0), 2 CTAs running
GPGPU-Sim uArch: core: 14, cta: 2 initialized @(10910,0)
GPGPU-Sim uArch: Shader 10 finished CTA #2 (10912,0), 2 CTAs running
GPGPU-Sim uArch: core: 10, cta: 2 initialized @(10913,0)
GPGPU-Sim uArch: Shader 11 finished CTA #2 (10916,0), 2 CTAs running
GPGPU-Sim uArch: core: 11, cta: 2 initialized @(10917,0)
GPGPU-Sim uArch: Shader 12 finished CTA #2 (10928,0), 2 CTAs running
GPGPU-Sim uArch: core: 12, cta: 2 initialized @(10929,0)
GPGPU-Sim uArch: Shader 7 finished CTA #2 (10930,0), 2 CTAs running
GPGPU-Sim uArch: core:  7, cta: 2 initialized @(10931,0)
GPGPU-Sim uArch: Shader 9 finished CTA #2 (10944,0), 2 CTAs running
GPGPU-Sim uArch: core:  9, cta: 2 initialized @(10945,0)
GPGPU-Sim uArch: Shader 8 finished CTA #2 (10973,0), 2 CTAs running
GPGPU-Sim uArch: core:  8, cta: 2 initialized @(10974,0)
GPGPU-Sim uArch: cycles simulated: 11000  inst.: 4850390 (ipc=440.9) sim_rate=186553 (inst/sec) elapsed = 0:0:00:26 / Tue Oct 31 01:31:27 2023
GPGPU-Sim PTX: 5200000 instructions simulated : ctaid=(57,0,0) tid=(283,0,0)
GPGPU-Sim uArch: Shader 6 finished CTA #2 (11093,0), 2 CTAs running
GPGPU-Sim uArch: core:  6, cta: 2 initialized @(11094,0)
GPGPU-Sim uArch: Shader 13 finished CTA #2 (11120,0), 2 CTAs running
GPGPU-Sim uArch: core: 13, cta: 2 initialized @(11121,0)
GPGPU-Sim PTX: 5300000 instructions simulated : ctaid=(62,0,0) tid=(79,0,0)
GPGPU-Sim PTX: 5400000 instructions simulated : ctaid=(72,0,0) tid=(331,0,0)
GPGPU-Sim uArch: cycles simulated: 11500  inst.: 5101176 (ipc=443.6) sim_rate=188932 (inst/sec) elapsed = 0:0:00:27 / Tue Oct 31 01:31:28 2023
GPGPU-Sim PTX: 5500000 instructions simulated : ctaid=(57,0,0) tid=(357,0,0)
GPGPU-Sim PTX: 5600000 instructions simulated : ctaid=(46,0,0) tid=(457,0,0)
GPGPU-Sim PTX: 5700000 instructions simulated : ctaid=(47,0,0) tid=(389,0,0)
GPGPU-Sim uArch: cycles simulated: 12000  inst.: 5346005 (ipc=445.5) sim_rate=184345 (inst/sec) elapsed = 0:0:00:29 / Tue Oct 31 01:31:30 2023
GPGPU-Sim PTX: 5800000 instructions simulated : ctaid=(62,0,0) tid=(315,0,0)
GPGPU-Sim PTX: 5900000 instructions simulated : ctaid=(88,0,0) tid=(168,0,0)
GPGPU-Sim uArch: cycles simulated: 12500  inst.: 5560489 (ipc=444.8) sim_rate=185349 (inst/sec) elapsed = 0:0:00:30 / Tue Oct 31 01:31:31 2023
GPGPU-Sim PTX: 6000000 instructions simulated : ctaid=(66,0,0) tid=(98,0,0)
GPGPU-Sim PTX: 6100000 instructions simulated : ctaid=(57,0,0) tid=(151,0,0)
GPGPU-Sim uArch: cycles simulated: 13000  inst.: 5777605 (ipc=444.4) sim_rate=186374 (inst/sec) elapsed = 0:0:00:31 / Tue Oct 31 01:31:32 2023
GPGPU-Sim PTX: 6200000 instructions simulated : ctaid=(67,0,0) tid=(149,0,0)
GPGPU-Sim PTX: 6300000 instructions simulated : ctaid=(50,0,0) tid=(446,0,0)
GPGPU-Sim uArch: cycles simulated: 13500  inst.: 6009688 (ipc=445.2) sim_rate=187802 (inst/sec) elapsed = 0:0:00:32 / Tue Oct 31 01:31:33 2023
GPGPU-Sim PTX: 6400000 instructions simulated : ctaid=(87,0,0) tid=(48,0,0)
GPGPU-Sim PTX: 6500000 instructions simulated : ctaid=(64,0,0) tid=(160,0,0)
GPGPU-Sim PTX: 6600000 instructions simulated : ctaid=(47,0,0) tid=(136,0,0)
GPGPU-Sim uArch: Shader 5 finished CTA #0 (13914,0), 2 CTAs running
GPGPU-Sim uArch: core:  5, cta: 0 initialized @(13915,0)
GPGPU-Sim uArch: cycles simulated: 14000  inst.: 6267465 (ipc=447.7) sim_rate=189923 (inst/sec) elapsed = 0:0:00:33 / Tue Oct 31 01:31:34 2023
GPGPU-Sim uArch: Shader 4 finished CTA #0 (14021,0), 2 CTAs running
GPGPU-Sim uArch: core:  4, cta: 0 initialized @(14022,0)
GPGPU-Sim PTX: 6700000 instructions simulated : ctaid=(52,0,0) tid=(435,0,0)
GPGPU-Sim uArch: Shader 11 finished CTA #0 (14103,0), 2 CTAs running
GPGPU-Sim uArch: core: 11, cta: 0 initialized @(14104,0)
GPGPU-Sim uArch: Shader 6 finished CTA #0 (14145,0), 2 CTAs running
GPGPU-Sim uArch: core:  6, cta: 0 initialized @(14146,0)
GPGPU-Sim uArch: Shader 12 finished CTA #0 (14179,0), 2 CTAs running
GPGPU-Sim uArch: core: 12, cta: 0 initialized @(14180,0)
GPGPU-Sim uArch: Shader 14 finished CTA #0 (14182,0), 2 CTAs running
GPGPU-Sim uArch: core: 14, cta: 0 initialized @(14183,0)
GPGPU-Sim uArch: Shader 0 finished CTA #0 (14185,0), 2 CTAs running
GPGPU-Sim uArch: core:  0, cta: 0 initialized @(14186,0)
GPGPU-Sim uArch: Shader 8 finished CTA #0 (14197,0), 2 CTAs running
GPGPU-Sim uArch: core:  8, cta: 0 initialized @(14198,0)
GPGPU-Sim uArch: Shader 3 finished CTA #0 (14220,0), 2 CTAs running
GPGPU-Sim uArch: core:  3, cta: 0 initialized @(14221,0)
GPGPU-Sim PTX: 6800000 instructions simulated : ctaid=(93,0,0) tid=(1,0,0)
GPGPU-Sim uArch: Shader 7 finished CTA #0 (14290,0), 2 CTAs running
GPGPU-Sim uArch: core:  7, cta: 0 initialized @(14291,0)
GPGPU-Sim uArch: Shader 10 finished CTA #0 (14321,0), 2 CTAs running
GPGPU-Sim uArch: core: 10, cta: 0 initialized @(14322,0)
GPGPU-Sim uArch: Shader 13 finished CTA #0 (14333,0), 2 CTAs running
GPGPU-Sim uArch: core: 13, cta: 0 initialized @(14334,0)
GPGPU-Sim uArch: Shader 1 finished CTA #0 (14344,0), 2 CTAs running
GPGPU-Sim uArch: core:  1, cta: 0 initialized @(14345,0)
GPGPU-Sim uArch: Shader 9 finished CTA #0 (14367,0), 2 CTAs running
GPGPU-Sim uArch: core:  9, cta: 0 initialized @(14368,0)
GPGPU-Sim PTX: 6900000 instructions simulated : ctaid=(78,0,0) tid=(389,0,0)
GPGPU-Sim uArch: cycles simulated: 14500  inst.: 6528126 (ipc=450.2) sim_rate=192003 (inst/sec) elapsed = 0:0:00:34 / Tue Oct 31 01:31:35 2023
GPGPU-Sim uArch: Shader 2 finished CTA #0 (14511,0), 2 CTAs running
GPGPU-Sim uArch: core:  2, cta: 0 initialized @(14512,0)
GPGPU-Sim PTX: 7000000 instructions simulated : ctaid=(102,0,0) tid=(419,0,0)
GPGPU-Sim PTX: 7100000 instructions simulated : ctaid=(66,0,0) tid=(464,0,0)
GPGPU-Sim uArch: cycles simulated: 15000  inst.: 6728753 (ipc=448.6) sim_rate=186909 (inst/sec) elapsed = 0:0:00:36 / Tue Oct 31 01:31:37 2023
GPGPU-Sim PTX: 7200000 instructions simulated : ctaid=(60,0,0) tid=(288,0,0)
GPGPU-Sim PTX: 7300000 instructions simulated : ctaid=(104,0,0) tid=(18,0,0)
GPGPU-Sim uArch: cycles simulated: 15500  inst.: 6940473 (ipc=447.8) sim_rate=187580 (inst/sec) elapsed = 0:0:00:37 / Tue Oct 31 01:31:38 2023
GPGPU-Sim PTX: 7400000 instructions simulated : ctaid=(93,0,0) tid=(236,0,0)
GPGPU-Sim PTX: 7500000 instructions simulated : ctaid=(71,0,0) tid=(373,0,0)
GPGPU-Sim uArch: cycles simulated: 16000  inst.: 7140690 (ipc=446.3) sim_rate=187912 (inst/sec) elapsed = 0:0:00:38 / Tue Oct 31 01:31:39 2023
GPGPU-Sim PTX: 7600000 instructions simulated : ctaid=(75,0,0) tid=(360,0,0)
GPGPU-Sim PTX: 7700000 instructions simulated : ctaid=(66,0,0) tid=(10,0,0)
GPGPU-Sim PTX: 7800000 instructions simulated : ctaid=(64,0,0) tid=(395,0,0)
GPGPU-Sim uArch: cycles simulated: 16500  inst.: 7346066 (ipc=445.2) sim_rate=188360 (inst/sec) elapsed = 0:0:00:39 / Tue Oct 31 01:31:40 2023
GPGPU-Sim PTX: 7900000 instructions simulated : ctaid=(98,0,0) tid=(257,0,0)
GPGPU-Sim uArch: Shader 9 finished CTA #1 (16790,0), 2 CTAs running
GPGPU-Sim uArch: core:  9, cta: 1 initialized @(16791,0)
GPGPU-Sim PTX: 8000000 instructions simulated : ctaid=(64,0,0) tid=(67,0,0)
GPGPU-Sim PTX: 8100000 instructions simulated : ctaid=(91,0,0) tid=(368,0,0)
GPGPU-Sim uArch: Shader 1 finished CTA #1 (16983,0), 2 CTAs running
GPGPU-Sim uArch: core:  1, cta: 1 initialized @(16984,0)
GPGPU-Sim uArch: Shader 13 finished CTA #1 (16988,0), 2 CTAs running
GPGPU-Sim uArch: core: 13, cta: 1 initialized @(16989,0)
GPGPU-Sim uArch: cycles simulated: 17000  inst.: 7621372 (ipc=448.3) sim_rate=190534 (inst/sec) elapsed = 0:0:00:40 / Tue Oct 31 01:31:41 2023
GPGPU-Sim uArch: Shader 3 finished CTA #1 (17055,0), 2 CTAs running
GPGPU-Sim uArch: core:  3, cta: 1 initialized @(17056,0)
GPGPU-Sim uArch: Shader 10 finished CTA #1 (17148,0), 2 CTAs running
GPGPU-Sim uArch: core: 10, cta: 1 initialized @(17149,0)
GPGPU-Sim uArch: Shader 5 finished CTA #1 (17173,0), 2 CTAs running
GPGPU-Sim uArch: Shader 12 finished CTA #1 (17173,0), 2 CTAs running
GPGPU-Sim uArch: core: 12, cta: 1 initialized @(17174,0)
GPGPU-Sim uArch: core:  5, cta: 1 initialized @(17174,0)
GPGPU-Sim uArch: Shader 0 finished CTA #1 (17174,0), 2 CTAs running
GPGPU-Sim uArch: core:  0, cta: 1 initialized @(17175,0)
GPGPU-Sim uArch: Shader 11 finished CTA #1 (17176,0), 2 CTAs running
GPGPU-Sim uArch: Shader 14 finished CTA #1 (17176,0), 2 CTAs running
GPGPU-Sim uArch: core: 11, cta: 1 initialized @(17177,0)
GPGPU-Sim uArch: core: 14, cta: 1 initialized @(17177,0)
GPGPU-Sim uArch: Shader 4 finished CTA #1 (17179,0), 2 CTAs running
GPGPU-Sim uArch: core:  4, cta: 1 initialized @(17180,0)
GPGPU-Sim uArch: Shader 6 finished CTA #1 (17186,0), 2 CTAs running
GPGPU-Sim uArch: core:  6, cta: 1 initialized @(17187,0)
GPGPU-Sim uArch: Shader 2 finished CTA #1 (17216,0), 2 CTAs running
GPGPU-Sim uArch: core:  2, cta: 1 initialized @(17217,0)
GPGPU-Sim uArch: Shader 8 finished CTA #1 (17218,0), 2 CTAs running
GPGPU-Sim uArch: core:  8, cta: 1 initialized @(17219,0)
GPGPU-Sim PTX: 8200000 instructions simulated : ctaid=(78,0,0) tid=(496,0,0)
GPGPU-Sim uArch: Shader 7 finished CTA #1 (17261,0), 2 CTAs running
GPGPU-Sim uArch: core:  7, cta: 1 initialized @(17262,0)
GPGPU-Sim PTX: 8300000 instructions simulated : ctaid=(115,0,0) tid=(144,0,0)
GPGPU-Sim uArch: cycles simulated: 17500  inst.: 7885649 (ipc=450.6) sim_rate=187753 (inst/sec) elapsed = 0:0:00:42 / Tue Oct 31 01:31:43 2023
GPGPU-Sim PTX: 8400000 instructions simulated : ctaid=(77,0,0) tid=(256,0,0)
GPGPU-Sim PTX: 8500000 instructions simulated : ctaid=(99,0,0) tid=(342,0,0)
GPGPU-Sim PTX: 8600000 instructions simulated : ctaid=(101,0,0) tid=(342,0,0)
GPGPU-Sim uArch: cycles simulated: 18000  inst.: 8088388 (ipc=449.4) sim_rate=188102 (inst/sec) elapsed = 0:0:00:43 / Tue Oct 31 01:31:44 2023
GPGPU-Sim PTX: 8700000 instructions simulated : ctaid=(119,0,0) tid=(488,0,0)
GPGPU-Sim PTX: 8800000 instructions simulated : ctaid=(90,0,0) tid=(133,0,0)
GPGPU-Sim uArch: cycles simulated: 18500  inst.: 8328353 (ipc=450.2) sim_rate=189280 (inst/sec) elapsed = 0:0:00:44 / Tue Oct 31 01:31:45 2023
GPGPU-Sim PTX: 8900000 instructions simulated : ctaid=(92,0,0) tid=(68,0,0)
GPGPU-Sim PTX: 9000000 instructions simulated : ctaid=(80,0,0) tid=(290,0,0)
GPGPU-Sim uArch: cycles simulated: 19000  inst.: 8526286 (ipc=448.8) sim_rate=189473 (inst/sec) elapsed = 0:0:00:45 / Tue Oct 31 01:31:46 2023
GPGPU-Sim PTX: 9100000 instructions simulated : ctaid=(81,0,0) tid=(194,0,0)
GPGPU-Sim PTX: 9200000 instructions simulated : ctaid=(111,0,0) tid=(191,0,0)
GPGPU-Sim uArch: Shader 9 finished CTA #2 (19331,0), 2 CTAs running
GPGPU-Sim uArch: core:  9, cta: 2 initialized @(19332,0)
GPGPU-Sim uArch: Shader 12 finished CTA #2 (19401,0), 2 CTAs running
GPGPU-Sim uArch: core: 12, cta: 2 initialized @(19402,0)
GPGPU-Sim uArch: Shader 13 finished CTA #2 (19412,0), 2 CTAs running
GPGPU-Sim uArch: core: 13, cta: 2 initialized @(19413,0)
GPGPU-Sim uArch: Shader 4 finished CTA #2 (19428,0), 2 CTAs running
GPGPU-Sim uArch: core:  4, cta: 2 initialized @(19429,0)
GPGPU-Sim PTX: 9300000 instructions simulated : ctaid=(122,0,0) tid=(329,0,0)
GPGPU-Sim uArch: cycles simulated: 19500  inst.: 8754625 (ipc=449.0) sim_rate=190317 (inst/sec) elapsed = 0:0:00:46 / Tue Oct 31 01:31:47 2023
GPGPU-Sim uArch: Shader 11 finished CTA #2 (19546,0), 2 CTAs running
GPGPU-Sim uArch: core: 11, cta: 2 initialized @(19547,0)
GPGPU-Sim uArch: Shader 14 finished CTA #2 (19578,0), 2 CTAs running
GPGPU-Sim uArch: core: 14, cta: 2 initialized @(19579,0)
GPGPU-Sim uArch: Shader 6 finished CTA #2 (19609,0), 2 CTAs running
GPGPU-Sim uArch: core:  6, cta: 2 initialized @(19610,0)
GPGPU-Sim uArch: Shader 7 finished CTA #2 (19617,0), 2 CTAs running
GPGPU-Sim uArch: core:  7, cta: 2 initialized @(19618,0)
GPGPU-Sim PTX: 9400000 instructions simulated : ctaid=(111,0,0) tid=(293,0,0)
GPGPU-Sim uArch: Shader 0 finished CTA #2 (19669,0), 2 CTAs running
GPGPU-Sim uArch: core:  0, cta: 2 initialized @(19670,0)
GPGPU-Sim uArch: Shader 1 finished CTA #2 (19678,0), 2 CTAs running
GPGPU-Sim uArch: core:  1, cta: 2 initialized @(19679,0)
GPGPU-Sim uArch: Shader 8 finished CTA #2 (19689,0), 2 CTAs running
GPGPU-Sim uArch: core:  8, cta: 2 initialized @(19690,0)
GPGPU-Sim uArch: Shader 10 finished CTA #2 (19713,0), 2 CTAs running
GPGPU-Sim uArch: core: 10, cta: 2 initialized @(19714,0)
GPGPU-Sim uArch: Shader 3 finished CTA #2 (19722,0), 2 CTAs running
GPGPU-Sim uArch: core:  3, cta: 2 initialized @(19723,0)
GPGPU-Sim PTX: 9500000 instructions simulated : ctaid=(132,0,0) tid=(487,0,0)
GPGPU-Sim uArch: Shader 2 finished CTA #2 (19927,0), 2 CTAs running
GPGPU-Sim uArch: core:  2, cta: 2 initialized @(19928,0)
GPGPU-Sim uArch: Shader 5 finished CTA #2 (19967,0), 2 CTAs running
GPGPU-Sim uArch: core:  5, cta: 2 initialized @(19968,0)
GPGPU-Sim uArch: cycles simulated: 20000  inst.: 8992825 (ipc=449.6) sim_rate=187350 (inst/sec) elapsed = 0:0:00:48 / Tue Oct 31 01:31:49 2023
GPGPU-Sim PTX: 9600000 instructions simulated : ctaid=(115,0,0) tid=(502,0,0)
GPGPU-Sim PTX: 9700000 instructions simulated : ctaid=(126,0,0) tid=(245,0,0)
GPGPU-Sim PTX: 9800000 instructions simulated : ctaid=(116,0,0) tid=(267,0,0)
GPGPU-Sim uArch: cycles simulated: 20500  inst.: 9222663 (ipc=449.9) sim_rate=188217 (inst/sec) elapsed = 0:0:00:49 / Tue Oct 31 01:31:50 2023
GPGPU-Sim PTX: 9900000 instructions simulated : ctaid=(104,0,0) tid=(164,0,0)
GPGPU-Sim PTX: 10000000 instructions simulated : ctaid=(116,0,0) tid=(300,0,0)
GPGPU-Sim uArch: cycles simulated: 21000  inst.: 9462541 (ipc=450.6) sim_rate=189250 (inst/sec) elapsed = 0:0:00:50 / Tue Oct 31 01:31:51 2023
GPGPU-Sim PTX: 10100000 instructions simulated : ctaid=(123,0,0) tid=(288,0,0)
GPGPU-Sim PTX: 10200000 instructions simulated : ctaid=(117,0,0) tid=(412,0,0)
GPGPU-Sim PTX: 10300000 instructions simulated : ctaid=(106,0,0) tid=(412,0,0)
GPGPU-Sim uArch: cycles simulated: 21500  inst.: 9700397 (ipc=451.2) sim_rate=190203 (inst/sec) elapsed = 0:0:00:51 / Tue Oct 31 01:31:52 2023
GPGPU-Sim PTX: 10400000 instructions simulated : ctaid=(103,0,0) tid=(94,0,0)
GPGPU-Sim PTX: 10500000 instructions simulated : ctaid=(98,0,0) tid=(177,0,0)
GPGPU-Sim uArch: cycles simulated: 22000  inst.: 9900417 (ipc=450.0) sim_rate=190392 (inst/sec) elapsed = 0:0:00:52 / Tue Oct 31 01:31:53 2023
GPGPU-Sim uArch: Shader 4 finished CTA #0 (22049,0), 2 CTAs running
GPGPU-Sim uArch: core:  4, cta: 0 initialized @(22050,0)
GPGPU-Sim uArch: Shader 11 finished CTA #0 (22108,0), 2 CTAs running
GPGPU-Sim uArch: core: 11, cta: 0 initialized @(22109,0)
GPGPU-Sim PTX: 10600000 instructions simulated : ctaid=(106,0,0) tid=(408,0,0)
GPGPU-Sim uArch: Shader 6 finished CTA #0 (22218,0), 2 CTAs running
GPGPU-Sim uArch: core:  6, cta: 0 initialized @(22219,0)
GPGPU-Sim uArch: Shader 14 finished CTA #0 (22219,0), 2 CTAs running
GPGPU-Sim uArch: core: 14, cta: 0 initialized @(22220,0)
GPGPU-Sim uArch: Shader 7 finished CTA #0 (22245,0), 2 CTAs running
GPGPU-Sim uArch: core:  7, cta: 0 initialized @(22246,0)
GPGPU-Sim uArch: Shader 3 finished CTA #0 (22265,0), 2 CTAs running
GPGPU-Sim uArch: core:  3, cta: 0 initialized @(22266,0)
GPGPU-Sim uArch: Shader 1 finished CTA #0 (22277,0), 2 CTAs running
GPGPU-Sim uArch: core:  1, cta: 0 initialized @(22278,0)
GPGPU-Sim uArch: Shader 0 finished CTA #0 (22282,0), 2 CTAs running
GPGPU-Sim uArch: core:  0, cta: 0 initialized @(22283,0)
GPGPU-Sim uArch: Shader 9 finished CTA #0 (22295,0), 2 CTAs running
GPGPU-Sim uArch: core:  9, cta: 0 initialized @(22296,0)
GPGPU-Sim PTX: 10700000 instructions simulated : ctaid=(133,0,0) tid=(257,0,0)
GPGPU-Sim uArch: Shader 8 finished CTA #0 (22314,0), 2 CTAs running
GPGPU-Sim uArch: core:  8, cta: 0 initialized @(22315,0)
GPGPU-Sim uArch: Shader 12 finished CTA #0 (22325,0), 2 CTAs running
GPGPU-Sim uArch: core: 12, cta: 0 initialized @(22326,0)
GPGPU-Sim uArch: Shader 13 finished CTA #0 (22351,0), 2 CTAs running
GPGPU-Sim uArch: core: 13, cta: 0 initialized @(22352,0)
GPGPU-Sim PTX: 10800000 instructions simulated : ctaid=(118,0,0) tid=(384,0,0)
GPGPU-Sim uArch: cycles simulated: 22500  inst.: 10159795 (ipc=451.5) sim_rate=188144 (inst/sec) elapsed = 0:0:00:54 / Tue Oct 31 01:31:55 2023
GPGPU-Sim uArch: Shader 5 finished CTA #0 (22580,0), 2 CTAs running
GPGPU-Sim uArch: core:  5, cta: 0 initialized @(22581,0)
GPGPU-Sim uArch: Shader 2 finished CTA #0 (22614,0), 2 CTAs running
GPGPU-Sim uArch: core:  2, cta: 0 initialized @(22615,0)
GPGPU-Sim uArch: Shader 10 finished CTA #0 (22677,0), 2 CTAs running
GPGPU-Sim PTX: 10900000 instructions simulated : ctaid=(113,0,0) tid=(272,0,0)
GPGPU-Sim uArch: core: 10, cta: 0 initialized @(22678,0)
GPGPU-Sim PTX: 11000000 instructions simulated : ctaid=(127,0,0) tid=(129,0,0)
GPGPU-Sim uArch: cycles simulated: 23000  inst.: 10417257 (ipc=452.9) sim_rate=189404 (inst/sec) elapsed = 0:0:00:55 / Tue Oct 31 01:31:56 2023
GPGPU-Sim PTX: 11100000 instructions simulated : ctaid=(130,0,0) tid=(88,0,0)
GPGPU-Sim PTX: 11200000 instructions simulated : ctaid=(117,0,0) tid=(510,0,0)
GPGPU-Sim PTX: 11300000 instructions simulated : ctaid=(134,0,0) tid=(144,0,0)
GPGPU-Sim uArch: cycles simulated: 23500  inst.: 10633603 (ipc=452.5) sim_rate=186554 (inst/sec) elapsed = 0:0:00:57 / Tue Oct 31 01:31:58 2023
GPGPU-Sim PTX: 11400000 instructions simulated : ctaid=(106,0,0) tid=(240,0,0)
GPGPU-Sim PTX: 11500000 instructions simulated : ctaid=(133,0,0) tid=(321,0,0)
GPGPU-Sim uArch: cycles simulated: 24000  inst.: 10870737 (ipc=452.9) sim_rate=187426 (inst/sec) elapsed = 0:0:00:58 / Tue Oct 31 01:31:59 2023
GPGPU-Sim PTX: 11600000 instructions simulated : ctaid=(110,0,0) tid=(306,0,0)
GPGPU-Sim PTX: 11700000 instructions simulated : ctaid=(106,0,0) tid=(449,0,0)
GPGPU-Sim uArch: cycles simulated: 24500  inst.: 11070260 (ipc=451.8) sim_rate=187631 (inst/sec) elapsed = 0:0:00:59 / Tue Oct 31 01:32:00 2023
GPGPU-Sim PTX: 11800000 instructions simulated : ctaid=(128,0,0) tid=(484,0,0)
GPGPU-Sim uArch: Shader 1 finished CTA #1 (24782,0), 2 CTAs running
GPGPU-Sim uArch: core:  1, cta: 1 initialized @(24783,0)
GPGPU-Sim PTX: 11900000 instructions simulated : ctaid=(150,0,0) tid=(12,0,0)
GPGPU-Sim uArch: Shader 0 finished CTA #1 (24804,0), 2 CTAs running
GPGPU-Sim uArch: Shader 9 finished CTA #1 (24804,0), 2 CTAs running
GPGPU-Sim uArch: core:  9, cta: 1 initialized @(24805,0)
GPGPU-Sim uArch: core:  0, cta: 1 initialized @(24805,0)
GPGPU-Sim uArch: Shader 3 finished CTA #1 (24872,0), 2 CTAs running
GPGPU-Sim uArch: core:  3, cta: 1 initialized @(24873,0)
GPGPU-Sim uArch: Shader 12 finished CTA #1 (24911,0), 2 CTAs running
GPGPU-Sim uArch: core: 12, cta: 1 initialized @(24912,0)
GPGPU-Sim uArch: Shader 13 finished CTA #1 (24951,0), 2 CTAs running
GPGPU-Sim uArch: core: 13, cta: 1 initialized @(24952,0)
GPGPU-Sim PTX: 12000000 instructions simulated : ctaid=(143,0,0) tid=(104,0,0)
GPGPU-Sim uArch: Shader 2 finished CTA #1 (24976,0), 2 CTAs running
GPGPU-Sim uArch: core:  2, cta: 1 initialized @(24977,0)
GPGPU-Sim uArch: Shader 5 finished CTA #1 (24977,0), 2 CTAs running
GPGPU-Sim uArch: core:  5, cta: 1 initialized @(24978,0)
GPGPU-Sim uArch: cycles simulated: 25000  inst.: 11300215 (ipc=452.0) sim_rate=188336 (inst/sec) elapsed = 0:0:01:00 / Tue Oct 31 01:32:01 2023
GPGPU-Sim PTX: 12100000 instructions simulated : ctaid=(134,0,0) tid=(282,0,0)
GPGPU-Sim uArch: Shader 6 finished CTA #1 (25113,0), 2 CTAs running
GPGPU-Sim uArch: core:  6, cta: 1 initialized @(25114,0)
GPGPU-Sim uArch: Shader 11 finished CTA #1 (25162,0), 2 CTAs running
GPGPU-Sim uArch: core: 11, cta: 1 initialized @(25163,0)
GPGPU-Sim uArch: Shader 8 finished CTA #1 (25207,0), 2 CTAs running
GPGPU-Sim uArch: core:  8, cta: 1 initialized @(25208,0)
GPGPU-Sim uArch: Shader 7 finished CTA #1 (25269,0), 2 CTAs running
GPGPU-Sim uArch: core:  7, cta: 1 initialized @(25270,0)
GPGPU-Sim uArch: Shader 4 finished CTA #1 (25289,0), 2 CTAs running
GPGPU-Sim uArch: core:  4, cta: 1 initialized @(25290,0)
GPGPU-Sim uArch: Shader 10 finished CTA #1 (25305,0), 2 CTAs running
GPGPU-Sim uArch: core: 10, cta: 1 initialized @(25306,0)
GPGPU-Sim PTX: 12200000 instructions simulated : ctaid=(136,0,0) tid=(284,0,0)
GPGPU-Sim uArch: Shader 14 finished CTA #1 (25478,0), 2 CTAs running
GPGPU-Sim uArch: core: 14, cta: 1 initialized @(25479,0)
GPGPU-Sim uArch: cycles simulated: 25500  inst.: 11553960 (ipc=453.1) sim_rate=186354 (inst/sec) elapsed = 0:0:01:02 / Tue Oct 31 01:32:03 2023
GPGPU-Sim PTX: 12300000 instructions simulated : ctaid=(158,0,0) tid=(303,0,0)
GPGPU-Sim PTX: 12400000 instructions simulated : ctaid=(157,0,0) tid=(456,0,0)
GPGPU-Sim PTX: 12500000 instructions simulated : ctaid=(130,0,0) tid=(352,0,0)
GPGPU-Sim uArch: cycles simulated: 26000  inst.: 11780058 (ipc=453.1) sim_rate=186985 (inst/sec) elapsed = 0:0:01:03 / Tue Oct 31 01:32:04 2023
GPGPU-Sim PTX: 12600000 instructions simulated : ctaid=(133,0,0) tid=(218,0,0)
GPGPU-Sim PTX: 12700000 instructions simulated : ctaid=(164,0,0) tid=(115,0,0)
GPGPU-Sim uArch: cycles simulated: 26500  inst.: 12008669 (ipc=453.2) sim_rate=187635 (inst/sec) elapsed = 0:0:01:04 / Tue Oct 31 01:32:05 2023
GPGPU-Sim PTX: 12800000 instructions simulated : ctaid=(141,0,0) tid=(307,0,0)
GPGPU-Sim PTX: 12900000 instructions simulated : ctaid=(145,0,0) tid=(176,0,0)
GPGPU-Sim PTX: 13000000 instructions simulated : ctaid=(146,0,0) tid=(332,0,0)
GPGPU-Sim uArch: cycles simulated: 27000  inst.: 12242574 (ipc=453.4) sim_rate=188347 (inst/sec) elapsed = 0:0:01:05 / Tue Oct 31 01:32:06 2023
GPGPU-Sim PTX: 13100000 instructions simulated : ctaid=(129,0,0) tid=(169,0,0)
GPGPU-Sim PTX: 13200000 instructions simulated : ctaid=(135,0,0) tid=(256,0,0)
GPGPU-Sim uArch: cycles simulated: 27500  inst.: 12445427 (ipc=452.6) sim_rate=188567 (inst/sec) elapsed = 0:0:01:06 / Tue Oct 31 01:32:07 2023
GPGPU-Sim PTX: 13300000 instructions simulated : ctaid=(158,0,0) tid=(371,0,0)
GPGPU-Sim uArch: Shader 6 finished CTA #2 (27694,0), 2 CTAs running
GPGPU-Sim uArch: core:  6, cta: 2 initialized @(27695,0)
GPGPU-Sim uArch: Shader 11 finished CTA #2 (27705,0), 2 CTAs running
GPGPU-Sim uArch: core: 11, cta: 2 initialized @(27706,0)
GPGPU-Sim uArch: Shader 3 finished CTA #2 (27754,0), 2 CTAs running
GPGPU-Sim uArch: core:  3, cta: 2 initialized @(27755,0)
GPGPU-Sim PTX: 13400000 instructions simulated : ctaid=(148,0,0) tid=(38,0,0)
GPGPU-Sim uArch: Shader 8 finished CTA #2 (27815,0), 2 CTAs running
GPGPU-Sim uArch: core:  8, cta: 2 initialized @(27816,0)
GPGPU-Sim uArch: Shader 5 finished CTA #2 (27828,0), 2 CTAs running
GPGPU-Sim uArch: core:  5, cta: 2 initialized @(27829,0)
GPGPU-Sim uArch: Shader 1 finished CTA #2 (27832,0), 2 CTAs running
GPGPU-Sim uArch: core:  1, cta: 2 initialized @(27833,0)
GPGPU-Sim uArch: Shader 4 finished CTA #2 (27836,0), 2 CTAs running
GPGPU-Sim uArch: core:  4, cta: 2 initialized @(27837,0)
GPGPU-Sim uArch: Shader 2 finished CTA #2 (27854,0), 2 CTAs running
GPGPU-Sim uArch: core:  2, cta: 2 initialized @(27855,0)
GPGPU-Sim uArch: Shader 10 finished CTA #2 (27878,0), 2 CTAs running
GPGPU-Sim uArch: core: 10, cta: 2 initialized @(27879,0)
GPGPU-Sim uArch: Shader 14 finished CTA #2 (27939,0), 2 CTAs running
GPGPU-Sim uArch: core: 14, cta: 2 initialized @(27940,0)
GPGPU-Sim uArch: Shader 0 finished CTA #2 (27949,0), 2 CTAs running
GPGPU-Sim uArch: core:  0, cta: 2 initialized @(27950,0)
GPGPU-Sim uArch: Shader 12 finished CTA #2 (27985,0), 2 CTAs running
GPGPU-Sim uArch: core: 12, cta: 2 initialized @(27986,0)
GPGPU-Sim PTX: 13500000 instructions simulated : ctaid=(150,0,0) tid=(357,0,0)
GPGPU-Sim uArch: cycles simulated: 28000  inst.: 12703496 (ipc=453.7) sim_rate=186816 (inst/sec) elapsed = 0:0:01:08 / Tue Oct 31 01:32:09 2023
GPGPU-Sim uArch: Shader 9 finished CTA #2 (28022,0), 2 CTAs running
GPGPU-Sim uArch: core:  9, cta: 2 initialized @(28023,0)
GPGPU-Sim uArch: Shader 13 finished CTA #2 (28066,0), 2 CTAs running
GPGPU-Sim uArch: core: 13, cta: 2 initialized @(28067,0)
GPGPU-Sim uArch: Shader 7 finished CTA #2 (28135,0), 2 CTAs running
GPGPU-Sim uArch: core:  7, cta: 2 initialized @(28136,0)
GPGPU-Sim PTX: 13600000 instructions simulated : ctaid=(153,0,0) tid=(453,0,0)
GPGPU-Sim PTX: 13700000 instructions simulated : ctaid=(169,0,0) tid=(216,0,0)
GPGPU-Sim uArch: cycles simulated: 28500  inst.: 12956231 (ipc=454.6) sim_rate=187771 (inst/sec) elapsed = 0:0:01:09 / Tue Oct 31 01:32:10 2023
GPGPU-Sim PTX: 13800000 instructions simulated : ctaid=(158,0,0) tid=(6,0,0)
GPGPU-Sim PTX: 13900000 instructions simulated : ctaid=(178,0,0) tid=(70,0,0)
GPGPU-Sim PTX: 14000000 instructions simulated : ctaid=(176,0,0) tid=(315,0,0)
GPGPU-Sim uArch: cycles simulated: 29000  inst.: 13178567 (ipc=454.4) sim_rate=188265 (inst/sec) elapsed = 0:0:01:10 / Tue Oct 31 01:32:11 2023
GPGPU-Sim PTX: 14100000 instructions simulated : ctaid=(173,0,0) tid=(119,0,0)
GPGPU-Sim PTX: 14200000 instructions simulated : ctaid=(163,0,0) tid=(132,0,0)
GPGPU-Sim uArch: cycles simulated: 29500  inst.: 13411102 (ipc=454.6) sim_rate=188888 (inst/sec) elapsed = 0:0:01:11 / Tue Oct 31 01:32:12 2023
GPGPU-Sim PTX: 14300000 instructions simulated : ctaid=(179,0,0) tid=(419,0,0)
GPGPU-Sim PTX: 14400000 instructions simulated : ctaid=(137,0,0) tid=(256,0,0)
GPGPU-Sim uArch: cycles simulated: 30000  inst.: 13618389 (ipc=453.9) sim_rate=186553 (inst/sec) elapsed = 0:0:01:13 / Tue Oct 31 01:32:14 2023
GPGPU-Sim PTX: 14500000 instructions simulated : ctaid=(135,0,0) tid=(83,0,0)
GPGPU-Sim uArch: Shader 3 finished CTA #0 (30309,0), 2 CTAs running
GPGPU-Sim uArch: core:  3, cta: 0 initialized @(30310,0)
GPGPU-Sim uArch: Shader 5 finished CTA #0 (30319,0), 2 CTAs running
GPGPU-Sim uArch: core:  5, cta: 0 initialized @(30320,0)
GPGPU-Sim PTX: 14600000 instructions simulated : ctaid=(172,0,0) tid=(20,0,0)
GPGPU-Sim uArch: Shader 4 finished CTA #0 (30344,0), 2 CTAs running
GPGPU-Sim uArch: core:  4, cta: 0 initialized @(30345,0)
GPGPU-Sim uArch: Shader 10 finished CTA #0 (30411,0), 2 CTAs running
GPGPU-Sim uArch: core: 10, cta: 0 initialized @(30412,0)
GPGPU-Sim uArch: Shader 1 finished CTA #0 (30432,0), 2 CTAs running
GPGPU-Sim uArch: core:  1, cta: 0 initialized @(30433,0)
GPGPU-Sim uArch: Shader 13 finished CTA #0 (30469,0), 2 CTAs running
GPGPU-Sim uArch: core: 13, cta: 0 initialized @(30470,0)
GPGPU-Sim PTX: 14700000 instructions simulated : ctaid=(181,0,0) tid=(338,0,0)
GPGPU-Sim uArch: Shader 14 finished CTA #0 (30483,0), 2 CTAs running
GPGPU-Sim uArch: core: 14, cta: 0 initialized @(30484,0)
GPGPU-Sim uArch: cycles simulated: 30500  inst.: 13846052 (ipc=454.0) sim_rate=187108 (inst/sec) elapsed = 0:0:01:14 / Tue Oct 31 01:32:15 2023
GPGPU-Sim uArch: Shader 11 finished CTA #0 (30508,0), 2 CTAs running
GPGPU-Sim uArch: core: 11, cta: 0 initialized @(30509,0)
GPGPU-Sim uArch: Shader 6 finished CTA #0 (30534,0), 2 CTAs running
GPGPU-Sim uArch: core:  6, cta: 0 initialized @(30535,0)
GPGPU-Sim uArch: Shader 2 finished CTA #0 (30588,0), 2 CTAs running
GPGPU-Sim uArch: core:  2, cta: 0 initialized @(30589,0)
GPGPU-Sim PTX: 14800000 instructions simulated : ctaid=(171,0,0) tid=(71,0,0)
GPGPU-Sim uArch: Shader 9 finished CTA #0 (30621,0), 2 CTAs running
GPGPU-Sim uArch: core:  9, cta: 0 initialized @(30622,0)
GPGPU-Sim uArch: Shader 7 finished CTA #0 (30646,0), 2 CTAs running
GPGPU-Sim uArch: core:  7, cta: 0 initialized @(30647,0)
GPGPU-Sim uArch: Shader 8 finished CTA #0 (30659,0), 2 CTAs running
GPGPU-Sim uArch: core:  8, cta: 0 initialized @(30660,0)
GPGPU-Sim uArch: Shader 12 finished CTA #0 (30720,0), 2 CTAs running
GPGPU-Sim uArch: core: 12, cta: 0 initialized @(30721,0)
GPGPU-Sim uArch: Shader 0 finished CTA #0 (30733,0), 2 CTAs running
GPGPU-Sim uArch: core:  0, cta: 0 initialized @(30734,0)
GPGPU-Sim PTX: 14900000 instructions simulated : ctaid=(169,0,0) tid=(209,0,0)
GPGPU-Sim uArch: cycles simulated: 31000  inst.: 14108038 (ipc=455.1) sim_rate=188107 (inst/sec) elapsed = 0:0:01:15 / Tue Oct 31 01:32:16 2023
GPGPU-Sim PTX: 15000000 instructions simulated : ctaid=(159,0,0) tid=(205,0,0)
GPGPU-Sim PTX: 15100000 instructions simulated : ctaid=(186,0,0) tid=(403,0,0)
GPGPU-Sim PTX: 15200000 instructions simulated : ctaid=(175,0,0) tid=(298,0,0)
GPGPU-Sim uArch: cycles simulated: 31500  inst.: 14333270 (ipc=455.0) sim_rate=186146 (inst/sec) elapsed = 0:0:01:17 / Tue Oct 31 01:32:18 2023
GPGPU-Sim PTX: 15300000 instructions simulated : ctaid=(158,0,0) tid=(175,0,0)
GPGPU-Sim PTX: 15400000 instructions simulated : ctaid=(171,0,0) tid=(492,0,0)
GPGPU-Sim uArch: cycles simulated: 32000  inst.: 14561547 (ipc=455.0) sim_rate=186686 (inst/sec) elapsed = 0:0:01:18 / Tue Oct 31 01:32:19 2023
GPGPU-Sim PTX: 15500000 instructions simulated : ctaid=(177,0,0) tid=(435,0,0)
GPGPU-Sim PTX: 15600000 instructions simulated : ctaid=(168,0,0) tid=(184,0,0)
GPGPU-Sim PTX: 15700000 instructions simulated : ctaid=(190,0,0) tid=(412,0,0)
GPGPU-Sim uArch: cycles simulated: 32500  inst.: 14783975 (ipc=454.9) sim_rate=187138 (inst/sec) elapsed = 0:0:01:19 / Tue Oct 31 01:32:20 2023
GPGPU-Sim PTX: 15800000 instructions simulated : ctaid=(169,0,0) tid=(224,0,0)
GPGPU-Sim PTX: 15900000 instructions simulated : ctaid=(152,0,0) tid=(124,0,0)
GPGPU-Sim uArch: cycles simulated: 33000  inst.: 14999312 (ipc=454.5) sim_rate=187491 (inst/sec) elapsed = 0:0:01:20 / Tue Oct 31 01:32:21 2023
GPGPU-Sim uArch: Shader 3 finished CTA #1 (33007,0), 2 CTAs running
GPGPU-Sim uArch: core:  3, cta: 1 initialized @(33008,0)
GPGPU-Sim uArch: Shader 9 finished CTA #1 (33036,0), 2 CTAs running
GPGPU-Sim uArch: core:  9, cta: 1 initialized @(33037,0)
GPGPU-Sim uArch: Shader 12 finished CTA #1 (33125,0), 2 CTAs running
GPGPU-Sim uArch: core: 12, cta: 1 initialized @(33126,0)
GPGPU-Sim uArch: Shader 1 finished CTA #1 (33135,0), 2 CTAs running
GPGPU-Sim uArch: core:  1, cta: 1 initialized @(33136,0)
GPGPU-Sim PTX: 16000000 instructions simulated : ctaid=(193,0,0) tid=(359,0,0)
GPGPU-Sim uArch: Shader 0 finished CTA #1 (33157,0), 2 CTAs running
GPGPU-Sim uArch: core:  0, cta: 1 initialized @(33158,0)
GPGPU-Sim uArch: Shader 6 finished CTA #1 (33174,0), 2 CTAs running
GPGPU-Sim uArch: core:  6, cta: 1 initialized @(33175,0)
GPGPU-Sim uArch: Shader 11 finished CTA #1 (33214,0), 2 CTAs running
GPGPU-Sim uArch: core: 11, cta: 1 initialized @(33215,0)
GPGPU-Sim uArch: Shader 13 finished CTA #1 (33266,0), 2 CTAs running
GPGPU-Sim uArch: core: 13, cta: 1 initialized @(33267,0)
GPGPU-Sim PTX: 16100000 instructions simulated : ctaid=(200,0,0) tid=(231,0,0)
GPGPU-Sim uArch: Shader 14 finished CTA #1 (33306,0), 2 CTAs running
GPGPU-Sim uArch: core: 14, cta: 1 initialized @(33307,0)
GPGPU-Sim uArch: Shader 4 finished CTA #1 (33381,0), 2 CTAs running
GPGPU-Sim uArch: core:  4, cta: 1 initialized @(33382,0)
GPGPU-Sim uArch: Shader 2 finished CTA #1 (33385,0), 2 CTAs running
GPGPU-Sim uArch: core:  2, cta: 1 initialized @(33386,0)
GPGPU-Sim uArch: Shader 7 finished CTA #1 (33411,0), 2 CTAs running
GPGPU-Sim uArch: core:  7, cta: 1 initialized @(33412,0)
GPGPU-Sim uArch: Shader 10 finished CTA #1 (33412,0), 2 CTAs running
GPGPU-Sim uArch: core: 10, cta: 1 initialized @(33413,0)
GPGPU-Sim PTX: 16200000 instructions simulated : ctaid=(202,0,0) tid=(72,0,0)
GPGPU-Sim uArch: cycles simulated: 33500  inst.: 15280458 (ipc=456.1) sim_rate=186347 (inst/sec) elapsed = 0:0:01:22 / Tue Oct 31 01:32:23 2023
GPGPU-Sim uArch: Shader 5 finished CTA #1 (33528,0), 2 CTAs running
GPGPU-Sim uArch: core:  5, cta: 1 initialized @(33529,0)
GPGPU-Sim PTX: 16300000 instructions simulated : ctaid=(165,0,0) tid=(349,0,0)
GPGPU-Sim uArch: Shader 8 finished CTA #1 (33647,0), 2 CTAs running
GPGPU-Sim uArch: core:  8, cta: 1 initialized @(33648,0)
GPGPU-Sim PTX: 16400000 instructions simulated : ctaid=(186,0,0) tid=(477,0,0)
GPGPU-Sim uArch: cycles simulated: 34000  inst.: 15526260 (ipc=456.7) sim_rate=187063 (inst/sec) elapsed = 0:0:01:23 / Tue Oct 31 01:32:24 2023
GPGPU-Sim PTX: 16500000 instructions simulated : ctaid=(192,0,0) tid=(154,0,0)
GPGPU-Sim PTX: 16600000 instructions simulated : ctaid=(191,0,0) tid=(287,0,0)
GPGPU-Sim PTX: 16700000 instructions simulated : ctaid=(178,0,0) tid=(20,0,0)
GPGPU-Sim uArch: cycles simulated: 34500  inst.: 15733224 (ipc=456.0) sim_rate=187300 (inst/sec) elapsed = 0:0:01:24 / Tue Oct 31 01:32:25 2023
GPGPU-Sim PTX: 16800000 instructions simulated : ctaid=(167,0,0) tid=(500,0,0)
GPGPU-Sim PTX: 16900000 instructions simulated : ctaid=(207,0,0) tid=(91,0,0)
GPGPU-Sim uArch: cycles simulated: 35000  inst.: 15959461 (ipc=456.0) sim_rate=185575 (inst/sec) elapsed = 0:0:01:26 / Tue Oct 31 01:32:27 2023
GPGPU-Sim PTX: 17000000 instructions simulated : ctaid=(187,0,0) tid=(84,0,0)
GPGPU-Sim PTX: 17100000 instructions simulated : ctaid=(198,0,0) tid=(129,0,0)
GPGPU-Sim uArch: cycles simulated: 35500  inst.: 16168830 (ipc=455.5) sim_rate=185848 (inst/sec) elapsed = 0:0:01:27 / Tue Oct 31 01:32:28 2023
GPGPU-Sim PTX: 17200000 instructions simulated : ctaid=(169,0,0) tid=(213,0,0)
GPGPU-Sim PTX: 17300000 instructions simulated : ctaid=(184,0,0) tid=(312,0,0)
GPGPU-Sim uArch: Shader 9 finished CTA #2 (35894,0), 2 CTAs running
GPGPU-Sim uArch: core:  9, cta: 2 initialized @(35895,0)
GPGPU-Sim uArch: Shader 6 finished CTA #2 (35933,0), 2 CTAs running
GPGPU-Sim uArch: core:  6, cta: 2 initialized @(35934,0)
GPGPU-Sim uArch: Shader 2 finished CTA #2 (35949,0), 2 CTAs running
GPGPU-Sim uArch: core:  2, cta: 2 initialized @(35950,0)
GPGPU-Sim PTX: 17400000 instructions simulated : ctaid=(207,0,0) tid=(52,0,0)
GPGPU-Sim uArch: Shader 10 finished CTA #2 (35960,0), 2 CTAs running
GPGPU-Sim uArch: core: 10, cta: 2 initialized @(35961,0)
GPGPU-Sim uArch: Shader 3 finished CTA #2 (35985,0), 2 CTAs running
GPGPU-Sim uArch: core:  3, cta: 2 initialized @(35986,0)
GPGPU-Sim uArch: Shader 0 finished CTA #2 (35994,0), 2 CTAs running
GPGPU-Sim uArch: core:  0, cta: 2 initialized @(35995,0)
GPGPU-Sim uArch: cycles simulated: 36000  inst.: 16403642 (ipc=455.7) sim_rate=186405 (inst/sec) elapsed = 0:0:01:28 / Tue Oct 31 01:32:29 2023
GPGPU-Sim uArch: Shader 7 finished CTA #2 (36038,0), 2 CTAs running
GPGPU-Sim uArch: core:  7, cta: 2 initialized @(36039,0)
GPGPU-Sim uArch: Shader 12 finished CTA #2 (36088,0), 2 CTAs running
GPGPU-Sim uArch: core: 12, cta: 2 initialized @(36089,0)
GPGPU-Sim PTX: 17500000 instructions simulated : ctaid=(192,0,0) tid=(135,0,0)
GPGPU-Sim uArch: Shader 11 finished CTA #2 (36127,0), 2 CTAs running
GPGPU-Sim uArch: core: 11, cta: 2 initialized @(36128,0)
GPGPU-Sim uArch: Shader 14 finished CTA #2 (36172,0), 2 CTAs running
GPGPU-Sim uArch: core: 14, cta: 2 initialized @(36173,0)
GPGPU-Sim uArch: Shader 4 finished CTA #2 (36191,0), 2 CTAs running
GPGPU-Sim uArch: core:  4, cta: 2 initialized @(36192,0)
GPGPU-Sim uArch: Shader 5 finished CTA #2 (36243,0), 2 CTAs running
GPGPU-Sim uArch: core:  5, cta: 2 initialized @(36244,0)
GPGPU-Sim uArch: Shader 1 finished CTA #2 (36267,0), 2 CTAs running
GPGPU-Sim uArch: core:  1, cta: 2 initialized @(36268,0)
GPGPU-Sim PTX: 17600000 instructions simulated : ctaid=(202,0,0) tid=(423,0,0)
GPGPU-Sim uArch: Shader 8 finished CTA #2 (36340,0), 2 CTAs running
GPGPU-Sim uArch: core:  8, cta: 2 initialized @(36341,0)
GPGPU-Sim uArch: Shader 13 finished CTA #2 (36368,0), 2 CTAs running
GPGPU-Sim uArch: core: 13, cta: 2 initialized @(36369,0)
GPGPU-Sim PTX: 17700000 instructions simulated : ctaid=(180,0,0) tid=(323,0,0)
GPGPU-Sim uArch: cycles simulated: 36500  inst.: 16656406 (ipc=456.3) sim_rate=187150 (inst/sec) elapsed = 0:0:01:29 / Tue Oct 31 01:32:30 2023
GPGPU-Sim PTX: 17800000 instructions simulated : ctaid=(192,0,0) tid=(360,0,0)
GPGPU-Sim PTX: 17900000 instructions simulated : ctaid=(193,0,0) tid=(341,0,0)
GPGPU-Sim uArch: cycles simulated: 37000  inst.: 16870574 (ipc=456.0) sim_rate=185390 (inst/sec) elapsed = 0:0:01:31 / Tue Oct 31 01:32:32 2023
GPGPU-Sim PTX: 18000000 instructions simulated : ctaid=(196,0,0) tid=(506,0,0)
GPGPU-Sim PTX: 18100000 instructions simulated : ctaid=(188,0,0) tid=(460,0,0)
GPGPU-Sim uArch: cycles simulated: 37500  inst.: 17110548 (ipc=456.3) sim_rate=185984 (inst/sec) elapsed = 0:0:01:32 / Tue Oct 31 01:32:33 2023
GPGPU-Sim PTX: 18200000 instructions simulated : ctaid=(192,0,0) tid=(168,0,0)
GPGPU-Sim PTX: 18300000 instructions simulated : ctaid=(212,0,0) tid=(478,0,0)
GPGPU-Sim PTX: 18400000 instructions simulated : ctaid=(186,0,0) tid=(173,0,0)
GPGPU-Sim uArch: cycles simulated: 38000  inst.: 17333731 (ipc=456.2) sim_rate=186384 (inst/sec) elapsed = 0:0:01:33 / Tue Oct 31 01:32:34 2023
GPGPU-Sim PTX: 18500000 instructions simulated : ctaid=(197,0,0) tid=(119,0,0)
GPGPU-Sim PTX: 18600000 instructions simulated : ctaid=(220,0,0) tid=(183,0,0)
GPGPU-Sim uArch: cycles simulated: 38500  inst.: 17552254 (ipc=455.9) sim_rate=186726 (inst/sec) elapsed = 0:0:01:34 / Tue Oct 31 01:32:35 2023
GPGPU-Sim uArch: Shader 2 finished CTA #0 (38596,0), 2 CTAs running
GPGPU-Sim uArch: core:  2, cta: 0 initialized @(38597,0)
GPGPU-Sim uArch: Shader 14 finished CTA #0 (38608,0), 2 CTAs running
GPGPU-Sim uArch: core: 14, cta: 0 initialized @(38609,0)
GPGPU-Sim PTX: 18700000 instructions simulated : ctaid=(204,0,0) tid=(343,0,0)
GPGPU-Sim uArch: Shader 11 finished CTA #0 (38645,0), 2 CTAs running
GPGPU-Sim uArch: core: 11, cta: 0 initialized @(38646,0)
GPGPU-Sim uArch: Shader 5 finished CTA #0 (38649,0), 2 CTAs running
GPGPU-Sim uArch: core:  5, cta: 0 initialized @(38650,0)
GPGPU-Sim uArch: Shader 6 finished CTA #0 (38693,0), 2 CTAs running
GPGPU-Sim uArch: Shader 9 finished CTA #0 (38693,0), 2 CTAs running
GPGPU-Sim uArch: core:  6, cta: 0 initialized @(38694,0)
GPGPU-Sim uArch: core:  9, cta: 0 initialized @(38694,0)
GPGPU-Sim uArch: Shader 12 finished CTA #0 (38733,0), 2 CTAs running
GPGPU-Sim uArch: core: 12, cta: 0 initialized @(38734,0)
GPGPU-Sim uArch: Shader 8 finished CTA #0 (38758,0), 2 CTAs running
GPGPU-Sim uArch: core:  8, cta: 0 initialized @(38759,0)
GPGPU-Sim PTX: 18800000 instructions simulated : ctaid=(223,0,0) tid=(66,0,0)
GPGPU-Sim uArch: Shader 0 finished CTA #0 (38804,0), 2 CTAs running
GPGPU-Sim uArch: core:  0, cta: 0 initialized @(38805,0)
GPGPU-Sim uArch: Shader 3 finished CTA #0 (38873,0), 2 CTAs running
GPGPU-Sim uArch: core:  3, cta: 0 initialized @(38874,0)
GPGPU-Sim uArch: Shader 1 finished CTA #0 (38921,0), 2 CTAs running
GPGPU-Sim uArch: core:  1, cta: 0 initialized @(38922,0)
GPGPU-Sim uArch: Shader 4 finished CTA #0 (38947,0), 2 CTAs running
GPGPU-Sim uArch: core:  4, cta: 0 initialized @(38948,0)
GPGPU-Sim PTX: 18900000 instructions simulated : ctaid=(211,0,0) tid=(469,0,0)
GPGPU-Sim uArch: Shader 10 finished CTA #0 (38983,0), 2 CTAs running
GPGPU-Sim uArch: core: 10, cta: 0 initialized @(38984,0)
GPGPU-Sim uArch: cycles simulated: 39000  inst.: 17801780 (ipc=456.5) sim_rate=185435 (inst/sec) elapsed = 0:0:01:36 / Tue Oct 31 01:32:37 2023
GPGPU-Sim uArch: Shader 7 finished CTA #0 (39041,0), 2 CTAs running
GPGPU-Sim uArch: core:  7, cta: 0 initialized @(39042,0)
GPGPU-Sim uArch: Shader 13 finished CTA #0 (39046,0), 2 CTAs running
GPGPU-Sim uArch: core: 13, cta: 0 initialized @(39047,0)
GPGPU-Sim PTX: 19000000 instructions simulated : ctaid=(211,0,0) tid=(155,0,0)
GPGPU-Sim PTX: 19100000 instructions simulated : ctaid=(228,0,0) tid=(411,0,0)
GPGPU-Sim uArch: cycles simulated: 39500  inst.: 18039078 (ipc=456.7) sim_rate=185969 (inst/sec) elapsed = 0:0:01:37 / Tue Oct 31 01:32:38 2023
GPGPU-Sim PTX: 19200000 instructions simulated : ctaid=(201,0,0) tid=(508,0,0)
GPGPU-Sim PTX: 19300000 instructions simulated : ctaid=(239,0,0) tid=(134,0,0)
GPGPU-Sim PTX: 19400000 instructions simulated : ctaid=(233,0,0) tid=(242,0,0)
GPGPU-Sim uArch: cycles simulated: 40000  inst.: 18264554 (ipc=456.6) sim_rate=186373 (inst/sec) elapsed = 0:0:01:38 / Tue Oct 31 01:32:39 2023
GPGPU-Sim PTX: 19500000 instructions simulated : ctaid=(202,0,0) tid=(418,0,0)
GPGPU-Sim PTX: 19600000 instructions simulated : ctaid=(216,0,0) tid=(432,0,0)
GPGPU-Sim uArch: cycles simulated: 40500  inst.: 18500946 (ipc=456.8) sim_rate=185009 (inst/sec) elapsed = 0:0:01:40 / Tue Oct 31 01:32:41 2023
GPGPU-Sim PTX: 19700000 instructions simulated : ctaid=(227,0,0) tid=(378,0,0)
GPGPU-Sim PTX: 19800000 instructions simulated : ctaid=(222,0,0) tid=(429,0,0)
GPGPU-Sim uArch: cycles simulated: 41000  inst.: 18710185 (ipc=456.3) sim_rate=185249 (inst/sec) elapsed = 0:0:01:41 / Tue Oct 31 01:32:42 2023
GPGPU-Sim PTX: 19900000 instructions simulated : ctaid=(209,0,0) tid=(442,0,0)
GPGPU-Sim uArch: Shader 1 finished CTA #1 (41216,0), 2 CTAs running
GPGPU-Sim uArch: core:  1, cta: 1 initialized @(41217,0)
GPGPU-Sim uArch: Shader 8 finished CTA #1 (41249,0), 2 CTAs running
GPGPU-Sim uArch: core:  8, cta: 1 initialized @(41250,0)
GPGPU-Sim uArch: Shader 9 finished CTA #1 (41276,0), 2 CTAs running
GPGPU-Sim uArch: core:  9, cta: 1 initialized @(41277,0)
GPGPU-Sim PTX: 20000000 instructions simulated : ctaid=(236,0,0) tid=(98,0,0)
GPGPU-Sim uArch: Shader 13 finished CTA #1 (41355,0), 2 CTAs running
GPGPU-Sim uArch: core: 13, cta: 1 initialized @(41356,0)
GPGPU-Sim uArch: Shader 3 finished CTA #1 (41426,0), 2 CTAs running
GPGPU-Sim uArch: core:  3, cta: 1 initialized @(41427,0)
GPGPU-Sim uArch: Shader 12 finished CTA #1 (41430,0), 2 CTAs running
GPGPU-Sim uArch: core: 12, cta: 1 initialized @(41431,0)
GPGPU-Sim uArch: Shader 11 finished CTA #1 (41435,0), 2 CTAs running
GPGPU-Sim uArch: core: 11, cta: 1 initialized @(41436,0)
GPGPU-Sim uArch: Shader 5 finished CTA #1 (41443,0), 2 CTAs running
GPGPU-Sim uArch: core:  5, cta: 1 initialized @(41444,0)
GPGPU-Sim PTX: 20100000 instructions simulated : ctaid=(211,0,0) tid=(510,0,0)
GPGPU-Sim uArch: cycles simulated: 41500  inst.: 18936526 (ipc=456.3) sim_rate=185652 (inst/sec) elapsed = 0:0:01:42 / Tue Oct 31 01:32:43 2023
GPGPU-Sim uArch: Shader 4 finished CTA #1 (41505,0), 2 CTAs running
GPGPU-Sim uArch: core:  4, cta: 1 initialized @(41506,0)
GPGPU-Sim uArch: Shader 14 finished CTA #1 (41538,0), 2 CTAs running
GPGPU-Sim uArch: core: 14, cta: 1 initialized @(41539,0)
GPGPU-Sim uArch: Shader 0 finished CTA #1 (41562,0), 2 CTAs running
GPGPU-Sim uArch: core:  0, cta: 1 initialized @(41563,0)
GPGPU-Sim uArch: Shader 2 finished CTA #1 (41574,0), 2 CTAs running
[...]
dram_util_bins: 0 0 0 0 0 0 0 0 0 0
dram_eff_bins: 0 0 0 0 0 0 0 0 0 0
mrqq: max=16 avg=0.0542939
Memory Partition 3: 
Cache L2_bank_006:
MSHR contents

Cache L2_bank_007:
MSHR contents

In Dram Latency Queue (total = 0): 
DRAM[3]: 16 bks, busW=4 BL=8 CL=12, tRRD=2 tCCD=6, tRCD=12 tRAS=28 tRP=12 tRC=40
n_cmd=240948 n_nop=230167 n_act=170 n_pre=154 n_req=5239 n_rd=10428 n_write=29 bw_util=0.0868
n_activity=64380 dram_eff=0.3249
bk0: 640a 239314i bk1: 640a 239251i bk2: 640a 239227i bk3: 640a 239189i bk4: 660a 239143i bk5: 664a 238944i bk6: 704a 238876i bk7: 704a 238524i bk8: 648a 239076i bk9: 648a 238753i bk10: 640a 238973i bk11: 640a 238811i bk12: 640a 238994i bk13: 640a 238997i bk14: 640a 239215i bk15: 640a 239089i 
dram_util_bins: 0 0 0 0 0 0 0 0 0 0
dram_eff_bins: 0 0 0 0 0 0 0 0 0 0
mrqq: max=16 avg=0.0333101
Memory Partition 4: 
Cache L2_bank_008:
MSHR contents

Cache L2_bank_009:
MSHR contents

In Dram Latency Queue (total = 0): 
DRAM[4]: 16 bks, busW=4 BL=8 CL=12, tRRD=2 tCCD=6, tRCD=12 tRAS=28 tRP=12 tRC=40
n_cmd=240948 n_nop=230159 n_act=177 n_pre=161 n_req=5233 n_rd=10428 n_write=23 bw_util=0.08675
n_activity=63780 dram_eff=0.3277
bk0: 640a 239272i bk1: 640a 239159i bk2: 640a 239215i bk3: 640a 239114i bk4: 660a 239061i bk5: 664a 239026i bk6: 704a 238890i bk7: 704a 238539i bk8: 648a 238978i bk9: 648a 238748i bk10: 640a 238800i bk11: 640a 238667i bk12: 640a 238739i bk13: 640a 238881i bk14: 640a 239172i bk15: 640a 239146i 
dram_util_bins: 0 0 0 0 0 0 0 0 0 0
dram_eff_bins: 0 0 0 0 0 0 0 0 0 0
mrqq: max=16 avg=0.037755
Memory Partition 5: 
Cache L2_bank_010:
MSHR contents

Cache L2_bank_011:
MSHR contents

In Dram Latency Queue (total = 0): 
DRAM[5]: 16 bks, busW=4 BL=8 CL=12, tRRD=2 tCCD=6, tRCD=12 tRAS=28 tRP=12 tRC=40
n_cmd=240948 n_nop=230164 n_act=174 n_pre=158 n_req=5234 n_rd=10428 n_write=24 bw_util=0.08676
n_activity=64641 dram_eff=0.3234
bk0: 640a 239288i bk1: 640a 239204i bk2: 640a 239165i bk3: 640a 239022i bk4: 660a 239110i bk5: 664a 238969i bk6: 704a 238836i bk7: 704a 238541i bk8: 648a 238984i bk9: 648a 238735i bk10: 640a 238819i bk11: 640a 238836i bk12: 640a 238914i bk13: 640a 239012i bk14: 640a 239209i bk15: 640a 239087i 
dram_util_bins: 0 0 0 0 0 0 0 0 0 0
dram_eff_bins: 0 0 0 0 0 0 0 0 0 0
mrqq: max=16 avg=0.0334263

========= L2 cache stats =========
L2_cache_bank[0]: Access = 2730, Miss = 2610, Miss_rate = 0.956, Pending_hits = 11, Reservation_fails = 430
L2_cache_bank[1]: Access = 2668, Miss = 2606, Miss_rate = 0.977, Pending_hits = 3, Reservation_fails = 0
L2_cache_bank[2]: Access = 2698, Miss = 2608, Miss_rate = 0.967, Pending_hits = 11, Reservation_fails = 254
L2_cache_bank[3]: Access = 2668, Miss = 2606, Miss_rate = 0.977, Pending_hits = 0, Reservation_fails = 20
L2_cache_bank[4]: Access = 2698, Miss = 2608, Miss_rate = 0.967, Pending_hits = 9, Reservation_fails = 168
L2_cache_bank[5]: Access = 2670, Miss = 2608, Miss_rate = 0.977, Pending_hits = 1, Reservation_fails = 60
L2_cache_bank[6]: Access = 2668, Miss = 2606, Miss_rate = 0.977, Pending_hits = 3, Reservation_fails = 16
L2_cache_bank[7]: Access = 2732, Miss = 2608, Miss_rate = 0.955, Pending_hits = 12, Reservation_fails = 208
L2_cache_bank[8]: Access = 2668, Miss = 2606, Miss_rate = 0.977, Pending_hits = 3, Reservation_fails = 137
L2_cache_bank[9]: Access = 2732, Miss = 2608, Miss_rate = 0.955, Pending_hits = 6, Reservation_fails = 139
L2_cache_bank[10]: Access = 2668, Miss = 2606, Miss_rate = 0.977, Pending_hits = 5, Reservation_fails = 3
L2_cache_bank[11]: Access = 2732, Miss = 2608, Miss_rate = 0.955, Pending_hits = 5, Reservation_fails = 0
L2_total_cache_accesses = 32332
L2_total_cache_misses = 31288
L2_total_cache_miss_rate = 0.9677
L2_total_cache_pending_hits = 69
L2_total_cache_reservation_fails = 1435
L2_total_cache_breakdown:
	L2_cache_stats_breakdown[GLOBAL_ACC_R][MISS] = 31250
	L2_cache_stats_breakdown[GLOBAL_ACC_R][RESERVATION_FAIL] = 610
	L2_cache_stats_breakdown[CONST_ACC_R][HIT] = 11
	L2_cache_stats_breakdown[CONST_ACC_R][HIT_RESERVED] = 3
	L2_cache_stats_breakdown[CONST_ACC_R][MISS] = 1
	L2_cache_stats_breakdown[CONST_ACC_R][RESERVATION_FAIL] = 110
	L2_cache_stats_breakdown[GLOBAL_ACC_W][HIT] = 898
	L2_cache_stats_breakdown[GLOBAL_ACC_W][HIT_RESERVED] = 48
	L2_cache_stats_breakdown[GLOBAL_ACC_W][MISS] = 31
	L2_cache_stats_breakdown[GLOBAL_ACC_W][RESERVATION_FAIL] = 284
	L2_cache_stats_breakdown[INST_ACC_R][HIT] = 66
	L2_cache_stats_breakdown[INST_ACC_R][HIT_RESERVED] = 18
	L2_cache_stats_breakdown[INST_ACC_R][MISS] = 6
	L2_cache_stats_breakdown[INST_ACC_R][RESERVATION_FAIL] = 431
L2_cache_data_port_util = 0.001
L2_cache_fill_port_util = 0.057

icnt_total_pkts_mem_to_simt=157722
icnt_total_pkts_simt_to_mem=33309
LD_mem_lat_dist  0 0 0 0 0 0 0 0 0 0 0 0 0 0 0 0 0 0 0 0 0 0 0 0 0 0 0
ST_mem_lat_dist  0 0 0 0 0 0 0 0 0 0 0 0 0 0 0 0 0 0 0 0 0 0 0 0 0 0 0
----------------------------Interconnect-DETAILS--------------------------------
Class 0:
Packet latency average = 9.21732
	minimum = 6
	maximum = 193
Network latency average = 8.99923
	minimum = 6
	maximum = 193
Slowest packet = 1612
Flit latency average = 7.4756
	minimum = 6
	maximum = 193
Slowest flit = 3898
Fragmentation average = 0
	minimum = 0
	maximum = 0
Injected packet rate average = 0.0131204
	minimum = 0.0117894 (at node 0)
	maximum = 0.0149668 (at node 22)
Accepted packet rate average = 0.0131204
	minimum = 0.0117894 (at node 0)
	maximum = 0.0149668 (at node 22)
Injected flit rate average = 0.0387605
	minimum = 0.0121455 (at node 0)
	maximum = 0.07284 (at node 15)
Accepted flit rate average= 0.0387605
	minimum = 0.0149668 (at node 16)
	maximum = 0.0583936 (at node 5)
Injected packet length average = 2.95421
Accepted packet length average = 2.95421
Total in-flight flits = 0 (0 measured)
====== Overall Traffic Statistics ======
====== Traffic class 0 ======
Packet latency average = 9.21732 (1 samples)
	minimum = 6 (1 samples)
	maximum = 193 (1 samples)
Network latency average = 8.99923 (1 samples)
	minimum = 6 (1 samples)
	maximum = 193 (1 samples)
Flit latency average = 7.4756 (1 samples)
	minimum = 6 (1 samples)
	maximum = 193 (1 samples)
Fragmentation average = 0 (1 samples)
	minimum = 0 (1 samples)
	maximum = 0 (1 samples)
Injected packet rate average = 0.0131204 (1 samples)
	minimum = 0.0117894 (1 samples)
	maximum = 0.0149668 (1 samples)
Accepted packet rate average = 0.0131204 (1 samples)
	minimum = 0.0117894 (1 samples)
	maximum = 0.0149668 (1 samples)
Injected flit rate average = 0.0387605 (1 samples)
	minimum = 0.0121455 (1 samples)
	maximum = 0.07284 (1 samples)
Accepted flit rate average = 0.0387605 (1 samples)
	minimum = 0.0149668 (1 samples)
	maximum = 0.0583936 (1 samples)
Injected packet size average = 2.95421 (1 samples)
Accepted packet size average = 2.95421 (1 samples)
Hops average = 1 (1 samples)
----------------------------END-of-Interconnect-DETAILS-------------------------


gpgpu_simulation_time = 0 days, 0 hrs, 7 min, 33 sec (453 sec)
gpgpu_simulation_rate = 182144 (inst/sec)
gpgpu_simulation_rate = 402 (cycle/sec)
451.745239 s
Copying data from device to host...0.000625 s
Verifying results...1: 501.810 2: 516.790 3: 502.640 4: 510.410 5: 503.490 6: 505.570 7: 508.990 8: 497.270 9: 514.110 10: 519.030 11: 512.970 12: 505.890 13: 512.930 14: 519.840 15: 498.670 16: 495.380 17: 520.730 18: 500.290 19: 495.800 20: 517.400 21: 510.680 22: 497.160 23: 496.990 24: 504.120 25: 504.650 26: 516.580 27: 490.280 28: 500.610 29: 514.550 30: 504.510 31: 515.620 32: 490.280 33: 509.390 34: 509.470 35: 521.230 36: 499.790 37: 501.760 38: 511.820 39: 495.740 40: 519.980 41: 504.170 42: 534.700 43: 494.700 44: 516.460 45: 504.240 46: 523.980 47: 506.530 48: 516.550 49: 503.030 50: 499.970 51: 512.270 52: 511.880 53: 510.740 54: 484.400 55: 489.230 56: 489.540 57: 512.240 58: 502.510 59: 497.560 60: 515.260 61: 501.060 62: 504.060 63: 505.120 64: 503.730 65: 492.860 66: 492.280 67: 502.650 68: 507.390 69: 490.390 70: 506.910 71: 513.090 72: 522.960 73: 501.960 74: 524.010 75: 511.290 76: 513.120 77: 510.290 78: 492.840 79: 515.390 80: 506.210 81: 500.450 82: 517.070 83: 499.020 84: 499.970 85: 506.390 86: 516.670 87: 507.240 88: 508.610 89: 503.540 90: 494.450 91: 519.730 92: 489.410 93: 505.900 94: 516.940 95: 524.690 96: 499.320 97: 505.020 98: 494.970 99: 498.970 100: 504.700 101: 525.730 102: 516.560 103: 506.080 104: 478.530 105: 516.260 106: 497.790 107: 506.020 108: 509.630 109: 506.330 110: 512.730 111: 512.960 112: 502.390 113: 505.010 114: 514.490 115: 499.690 116: 511.000 117: 511.680 118: 517.920 119: 512.740 120: 493.730 121: 505.480 122: 502.010 123: 504.880 124: 514.210 125: 517.200 126: 523.530 127: 510.780 128: 494.450 129: 517.620 130: 508.660 131: 511.640 132: 517.950 133: 508.280 134: 500.970 135: 498.710 136: 517.520 137: 505.240 138: 514.680 139: 512.250 140: 509.840 141: 498.140 142: 497.210 143: 501.860 144: 513.930 145: 497.890 146: 519.260 147: 524.140 148: 491.050 149: 522.610 150: 513.170 151: 514.550 152: 514.160 153: 502.190 154: 495.400 155: 515.780 156: 512.680 157: 520.730 158: 495.820 159: 500.950 160: 512.850 161: 500.810 162: 510.280 163: 519.370 164: 518.580 165: 499.710 166: 505.300 167: 519.930 168: 499.510 169: 509.480 170: 501.980 171: 491.290 172: 505.880 173: 512.660 174: 516.630 175: 515.200 176: 505.160 177: 511.030 178: 511.430 179: 518.090 180: 515.170 181: 498.450 182: 505.100 183: 514.680 184: 499.440 185: 509.260 186: 505.430 187: 492.920 188: 503.100 189: 515.530 190: 513.340 191: 515.050 192: 514.360 193: 495.630 194: 512.880 195: 506.470 196: 524.050 197: 497.520 198: 499.700 199: 514.710 200: 507.050 201: 510.900 202: 502.360 203: 514.150 204: 511.220 205: 517.760 206: 511.310 207: 503.150 208: 513.320 209: 514.090 210: 506.130 211: 513.380 212: 499.520 213: 501.440 214: 516.220 215: 499.800 216: 518.190 217: 505.880 218: 509.380 219: 506.820 220: 491.500 221: 512.110 222: 498.630 223: 517.690 224: 515.870 225: 508.420 226: 521.270 227: 494.910 228: 516.980 229: 491.930 230: 497.710 231: 493.130 232: 493.250 233: 495.390 234: 492.650 235: 500.730 236: 491.100 237: 487.280 238: 499.510 239: 510.450 240: 517.350 241: 511.820 242: 489.630 243: 513.250 244: 501.570 245: 517.800 246: 494.840 247: 508.990 248: 520.140 249: 512.340 250: 506.240 251: 497.120 252: 505.340 253: 513.590 254: 487.880 255: 504.140 256: 515.100 257: 508.670 258: 516.600 259: 496.450 260: 514.710 261: 512.520 262: 511.400 263: 511.160 264: 509.280 265: 495.800 266: 510.480 267: 495.550 268: 507.010 269: 504.720 270: 510.250 271: 495.240 272: 519.850 273: 497.720 274: 500.880 275: 502.960 276: 504.480 277: 513.060 278: 499.090 279: 508.000 280: 517.620 281: 501.820 282: 509.410 283: 520.930 284: 499.380 285: 501.120 286: 502.960 287: 505.520 288: 503.570 289: 517.120 290: 501.030 291: 515.080 292: 498.500 293: 519.900 294: 498.660 295: 511.950 296: 502.560 297: 522.020 298: 499.580 299: 509.620 300: 500.330 301: 514.440 302: 498.820 303: 505.400 304: 502.250 305: 505.310 306: 498.040 307: 519.350 308: 499.670 309: 494.570 310: 499.990 311: 499.240 312: 504.370 313: 505.620 314: 507.880 315: 515.850 316: 520.170 317: 510.960 318: 508.350 319: 501.850 320: 501.450 321: 523.730 322: 492.250 323: 513.660 324: 513.000 325: 508.800 326: 505.570 327: 505.520 328: 506.360 329: 491.510 330: 496.870 331: 507.940 332: 508.620 333: 493.320 334: 506.040 335: 505.510 336: 515.090 337: 515.670 338: 510.020 339: 501.420 340: 507.320 341: 517.410 342: 501.520 343: 506.610 344: 510.580 345: 510.380 346: 493.360 347: 506.640 348: 532.480 349: 496.190 350: 513.100 351: 510.570 352: 490.170 353: 517.490 354: 497.040 355: 484.870 356: 496.100 357: 506.790 358: 507.250 359: 497.900 360: 511.280 361: 515.980 362: 510.760 363: 486.550 364: 504.030 365: 517.860 366: 500.130 367: 523.460 368: 488.660 369: 497.660 370: 502.060 371: 516.220 372: 509.160 373: 508.420 374: 507.790 375: 497.810 376: 517.120 377: 508.650 378: 497.300 379: 501.230 380: 502.640 381: 496.910 382: 495.010 383: 512.910 384: 516.060 385: 499.020 386: 506.920 387: 507.590 388: 511.770 389: 512.460 390: 500.010 391: 513.660 392: 516.310 393: 494.370 394: 503.940 395: 503.320 396: 499.840 397: 495.530 398: 506.690 399: 504.440 400: 508.820 401: 514.710 402: 502.440 403: 518.660 404: 518.320 405: 513.810 406: 529.020 407: 517.570 408: 508.600 409: 522.430 410: 501.910 411: 517.400 412: 509.700 413: 513.610 414: 512.220 415: 513.490 416: 501.500 417: 494.290 418: 508.600 419: 497.870 420: 494.580 421: 505.330 422: 516.530 423: 505.380 424: 514.280 425: 522.090 426: 516.870 427: 507.760 428: 511.470 429: 500.130 430: 499.190 431: 490.250 432: 515.310 433: 504.530 434: 512.480 435: 525.930 436: 506.180 437: 505.740 438: 494.010 439: 496.290 440: 504.740 441: 506.830 442: 502.110 443: 541.570 444: 528.610 445: 483.060 446: 500.910 447: 499.190 448: 509.050 449: 498.540 450: 526.420 451: 506.530 452: 511.610 453: 507.180 454: 514.780 455: 493.810 456: 514.860 457: 498.270 458: 503.650 459: 502.050 460: 498.470 461: 515.500 462: 516.520 463: 520.310 464: 519.480 465: 512.200 466: 504.600 467: 508.300 468: 505.430 469: 493.560 470: 520.640 471: 510.860 472: 514.090 473: 510.720 474: 502.440 475: 493.270 476: 510.070 477: 519.680 478: 499.940 479: 519.500 480: 511.720 481: 503.430 482: 491.890 483: 513.160 484: 505.180 485: 505.320 486: 503.030 487: 508.290 488: 521.160 489: 515.530 490: 516.820 491: 526.570 492: 501.440 493: 505.530 494: 523.340 495: 495.000 496: 509.440 497: 504.200 498: 493.980 499: 508.530 500: 522.680 501: 499.860 502: 520.750 503: 502.830 504: 503.540 505: 500.330 506: 528.730 507: 508.800 508: 505.840 509: 498.850 510: 503.690 511: 513.470 512: 503.150 513: 506.350 514: 505.500 515: 518.480 516: 506.110 517: 506.840 518: 498.760 519: 507.290 520: 498.380 521: 502.740 522: 513.200 523: 507.950 524: 494.880 525: 500.380 526: 508.480 527: 494.020 528: 502.120 529: 512.010 530: 502.310 531: 500.780 532: 510.950 533: 515.590 534: 524.890 535: 506.190 536: 519.620 537: 498.190 538: 520.890 539: 509.140 540: 518.050 541: 499.020 542: 520.250 543: 503.550 544: 515.180 545: 499.910 546: 497.250 547: 517.340 548: 515.070 549: 525.430 550: 503.770 551: 494.250 552: 500.080 553: 512.490 554: 487.960 555: 507.190 556: 514.930 557: 511.070 558: 491.490 559: 514.900 560: 506.230 561: 497.370 562: 515.310 563: 507.450 564: 514.580 565: 499.630 566: 501.050 567: 500.800 568: 509.350 569: 519.440 570: 503.700 571: 490.080 572: 519.140 573: 488.740 574: 513.490 575: 496.260 576: 515.260 577: 496.030 578: 495.580 579: 501.450 580: 499.780 581: 499.160 582: 506.180 583: 503.780 584: 499.490 585: 494.660 586: 505.340 587: 490.000 588: 506.770 589: 507.420 590: 520.150 591: 492.270 592: 508.430 593: 507.820 594: 508.600 595: 506.120 596: 517.580 597: 513.790 598: 509.170 599: 522.310 600: 511.440 601: 513.540 602: 504.770 603: 515.970 604: 500.900 605: 513.140 606: 503.140 607: 507.810 608: 503.470 609: 507.190 610: 508.820 611: 493.910 612: 520.820 613: 518.240 614: 519.730 615: 501.790 616: 507.450 617: 512.310 618: 514.300 619: 520.290 620: 518.950 621: 507.920 622: 501.810 623: 502.290 624: 518.440 625: 514.790 626: 509.320 627: 513.560 628: 510.500 629: 490.020 630: 496.000 631: 516.680 632: 494.110 633: 504.040 634: 517.390 635: 495.170 636: 503.020 637: 511.260 638: 514.510 639: 513.850 640: 511.130 641: 508.430 642: 508.670 643: 503.000 644: 509.720 645: 514.830 646: 500.300 647: 495.310 648: 521.570 649: 496.400 650: 520.860 651: 502.940 652: 483.460 653: 516.170 654: 513.070 655: 509.880 656: 515.790 657: 515.750 658: 494.280 659: 512.080 660: 508.350 661: 501.280 662: 519.690 663: 500.880 664: 515.310 665: 493.060 666: 502.780 667: 499.730 668: 509.810 669: 495.580 670: 522.220 671: 510.300 672: 507.480 673: 498.670 674: 507.630 675: 508.730 676: 497.280 677: 499.940 678: 511.160 679: 490.550 680: 498.020 681: 503.040 682: 519.840 683: 511.940 684: 507.750 685: 499.250 686: 520.980 687: 513.110 688: 532.590 689: 517.030 690: 503.490 691: 506.060 692: 500.900 693: 511.380 694: 492.850 695: 517.250 696: 512.810 697: 518.160 698: 500.740 699: 503.240 700: 507.360 701: 506.700 702: 496.150 703: 500.970 704: 496.450 705: 506.710 706: 514.760 707: 491.370 708: 506.530 709: 508.280 710: 493.160 711: 523.520 712: 511.940 713: 509.950 714: 496.150 715: 489.440 716: 512.390 717: 508.160 718: 519.720 719: 507.800 720: 504.830 721: 516.480 722: 520.270 723: 504.900 724: 495.250 725: 509.940 726: 509.210 727: 515.040 728: 530.640 729: 516.560 730: 508.490 731: 513.350 732: 512.950 733: 492.310 734: 505.150 735: 511.100 736: 515.450 737: 512.090 738: 513.440 739: 512.350 740: 507.240 741: 495.160 742: 493.610 743: 498.590 744: 499.220 745: 510.400 746: 502.870 747: 507.640 748: 505.930 749: 519.670 750: 497.350 751: 478.080 752: 486.710 753: 505.690 754: 500.130 755: 513.360 756: 514.710 757: 501.590 758: 502.620 759: 497.770 760: 504.700 761: 512.340 762: 508.750 763: 492.030 764: 512.290 765: 523.900 766: 495.170 767: 496.770 768: 517.010 769: 518.220 770: 509.780 771: 522.900 772: 496.730 773: 501.840 774: 505.760 775: 513.450 776: 502.430 777: 513.700 778: 503.310 779: 500.270 780: 520.040 781: 498.940 782: 494.500 783: 507.840 784: 491.440 785: 508.180 786: 507.200 787: 506.030 788: 527.040 789: 498.340 790: 508.030 791: 504.650 792: 504.990 793: 506.960 794: 529.030 795: 502.140 796: 521.180 797: 504.070 798: 501.670 799: 502.780 800: 504.010 801: 495.690 802: 506.500 803: 499.800 804: 517.080 805: 532.880 806: 497.700 807: 517.180 808: 493.790 809: 518.510 810: 501.330 811: 508.220 812: 495.330 813: 499.610 814: 502.770 815: 497.000 816: 507.550 817: 508.950 818: 509.420 819: 497.310 820: 493.760 821: 517.250 822: 512.350 823: 507.710 824: 525.080 825: 502.780 826: 520.140 827: 503.780 828: 519.460 829: 493.290 830: 506.520 831: 518.490 832: 494.030 833: 516.020 834: 517.840 835: 508.180 836: 510.940 837: 499.140 838: 500.940 839: 496.050 840: 504.810 841: 496.020 842: 498.540 843: 502.420 844: 515.520 845: 513.430 846: 509.760 847: 513.480 848: 502.940 849: 509.890 850: 496.160 851: 513.270 852: 507.340 853: 511.350 854: 512.990 855: 514.330 856: 521.400 857: 510.420 858: 514.380 859: 513.340 860: 504.660 861: 513.760 862: 484.580 863: 512.600 864: 517.110 865: 491.840 866: 495.810 867: 495.860 868: 520.280 869: 524.160 870: 498.610 871: 510.640 872: 493.770 873: 515.550 874: 530.710 875: 509.100 876: 510.210 877: 511.980 878: 504.440 879: 517.230 880: 523.470 881: 519.290 882: 510.910 883: 502.620 884: 484.710 885: 503.690 886: 509.530 887: 499.260 888: 500.050 889: 499.170 890: 497.290 891: 509.080 892: 498.550 893: 511.320 894: 506.820 895: 504.850 896: 495.820 897: 492.180 898: 491.980 899: 503.190 900: 515.010 901: 487.870 902: 505.950 903: 495.970 904: 501.800 905: 497.080 906: 518.680 907: 519.620 908: 491.960 909: 509.920 910: 510.150 911: 504.120 912: 508.460 913: 512.150 914: 518.690 915: 499.080 916: 516.060 917: 500.740 918: 495.190 919: 486.410 920: 510.160 921: 527.670 922: 515.150 923: 509.010 924: 508.990 925: 504.940 926: 511.860 927: 510.570 928: 498.930 929: 507.910 930: 493.480 931: 516.400 932: 496.920 933: 499.520 934: 507.850 935: 510.390 936: 505.580 937: 503.360 938: 508.770 939: 496.270 940: 499.160 941: 506.670 942: 502.480 943: 510.670 944: 514.960 945: 517.460 946: 516.560 947: 504.210 948: 509.270 949: 528.200 950: 497.450 951: 500.820 952: 517.080 953: 504.080 954: 505.870 955: 519.660 956: 505.640 957: 520.040 958: 497.990 959: 516.950 960: 514.890 961: 516.440 962: 502.480 963: 518.560 964: 499.240 965: 513.040 966: 498.560 967: 501.770 968: 505.210 969: 506.710 970: 497.810 971: 501.200 972: 509.430 973: 494.890 974: 511.310 975: 520.000 976: 281.190 
 Sum: 495179.750000 
TEST PASSED

