

        *** GPGPU-Sim Simulator Version 3.2.2  [build 0] ***


GPGPU-Sim PTX: simulation mode 0 (can change with PTX_SIM_MODE_FUNC environment variable:
               1=functional simulation only, 0=detailed performance simulator)
GPGPU-Sim: Configuration options:

-network_mode                           1 # Interconnection network mode
-inter_config_file   config_fermi_islip.icnt # Interconnection network config file
-gpgpu_ptx_use_cuobjdump                    1 # Use cuobjdump to extract ptx and sass from binaries
-gpgpu_experimental_lib_support                    0 # Try to extract code from cuda libraries [Broken because of unknown cudaGetExportTable]
-gpgpu_ptx_convert_to_ptxplus                    0 # Convert SASS (native ISA) to ptxplus and run ptxplus
-gpgpu_ptx_force_max_capability                   20 # Force maximum compute capability
-gpgpu_ptx_inst_debug_to_file                    0 # Dump executed instructions' debug information to file
-gpgpu_ptx_inst_debug_file       inst_debug.txt # Executed instructions' debug output file
-gpgpu_ptx_inst_debug_thread_uid                    1 # Thread UID for executed instructions' debug output
-gpgpu_simd_model                       1 # 1 = post-dominator
-gpgpu_shader_core_pipeline              1536:32 # shader core pipeline config, i.e., {<nthread>:<warpsize>}
-gpgpu_tex_cache:l1  4:128:24,L:R:m:N:L,F:128:4,128:2 # per-shader L1 texture cache  (READ-ONLY) config  {<nsets>:<bsize>:<assoc>,<rep>:<wr>:<alloc>:<wr_alloc>,<mshr>:<N>:<merge>,<mq>:<rf>}
-gpgpu_const_cache:l1 64:64:2,L:R:f:N:L,A:2:32,4 # per-shader L1 constant memory cache  (READ-ONLY) config  {<nsets>:<bsize>:<assoc>,<rep>:<wr>:<alloc>:<wr_alloc>,<mshr>:<N>:<merge>,<mq>} 
-gpgpu_cache:il1     4:128:4,L:R:f:N:L,A:2:32,4 # shader L1 instruction cache config  {<nsets>:<bsize>:<assoc>,<rep>:<wr>:<alloc>:<wr_alloc>,<mshr>:<N>:<merge>,<mq>} 
-gpgpu_cache:dl1     32:128:4,L:L:m:N:H,A:32:8,8 # per-shader L1 data cache config  {<nsets>:<bsize>:<assoc>,<rep>:<wr>:<alloc>:<wr_alloc>,<mshr>:<N>:<merge>,<mq> | none}
-gpgpu_cache:dl1PrefL1                 none # per-shader L1 data cache config  {<nsets>:<bsize>:<assoc>,<rep>:<wr>:<alloc>:<wr_alloc>,<mshr>:<N>:<merge>,<mq> | none}
-gpgpu_cache:dl1PreShared                 none # per-shader L1 data cache config  {<nsets>:<bsize>:<assoc>,<rep>:<wr>:<alloc>:<wr_alloc>,<mshr>:<N>:<merge>,<mq> | none}
-gmem_skip_L1D                          0 # global memory access skip L1D cache (implements -Xptxas -dlcm=cg, default=no skip)
-gpgpu_perfect_mem                      0 # enable perfect memory mode (no cache miss)
-n_regfile_gating_group                    4 # group of lanes that should be read/written together)
-gpgpu_clock_gated_reg_file                    0 # enable clock gated reg file for power calculations
-gpgpu_clock_gated_lanes                    0 # enable clock gated lanes for power calculations
-gpgpu_shader_registers                32768 # Number of registers per shader core. Limits number of concurrent CTAs. (default 8192)
-gpgpu_shader_cta                       8 # Maximum number of concurrent CTAs in shader (default 8)
-gpgpu_num_cta_barriers                   16 # Maximum number of named barriers per CTA (default 16)
-gpgpu_n_clusters                      15 # number of processing clusters
-gpgpu_n_cores_per_cluster                    1 # number of simd cores per cluster
-gpgpu_n_cluster_ejection_buffer_size                    8 # number of packets in ejection buffer
-gpgpu_n_ldst_response_buffer_size                    2 # number of response packets in ld/st unit ejection buffer
-gpgpu_shmem_size                   16384 # Size of shared memory per shader core (default 16kB)
-gpgpu_shmem_size                   49152 # Size of shared memory per shader core (default 16kB)
-gpgpu_shmem_size_PrefL1                16384 # Size of shared memory per shader core (default 16kB)
-gpgpu_shmem_size_PrefShared                16384 # Size of shared memory per shader core (default 16kB)
-gpgpu_shmem_num_banks                   32 # Number of banks in the shared memory in each shader core (default 16)
-gpgpu_shmem_limited_broadcast                    0 # Limit shared memory to do one broadcast per cycle (default on)
-gpgpu_shmem_warp_parts                    1 # Number of portions a warp is divided into for shared memory bank conflict check 
-gpgpu_warpdistro_shader                   -1 # Specify which shader core to collect the warp size distribution from
-gpgpu_warp_issue_shader                    0 # Specify which shader core to collect the warp issue distribution from
-gpgpu_local_mem_map                    1 # Mapping from local memory space address to simulated GPU physical address space (default = enabled)
-gpgpu_num_reg_banks                   16 # Number of register banks (default = 8)
-gpgpu_reg_bank_use_warp_id                    0 # Use warp ID in mapping registers to banks (default = off)
-gpgpu_operand_collector_num_units_sp                    6 # number of collector units (default = 4)
-gpgpu_operand_collector_num_units_sfu                    8 # number of collector units (default = 4)
-gpgpu_operand_collector_num_units_mem                    2 # number of collector units (default = 2)
-gpgpu_operand_collector_num_units_gen                    0 # number of collector units (default = 0)
-gpgpu_operand_collector_num_in_ports_sp                    2 # number of collector unit in ports (default = 1)
-gpgpu_operand_collector_num_in_ports_sfu                    1 # number of collector unit in ports (default = 1)
-gpgpu_operand_collector_num_in_ports_mem                    1 # number of collector unit in ports (default = 1)
-gpgpu_operand_collector_num_in_ports_gen                    0 # number of collector unit in ports (default = 0)
-gpgpu_operand_collector_num_out_ports_sp                    2 # number of collector unit in ports (default = 1)
-gpgpu_operand_collector_num_out_ports_sfu                    1 # number of collector unit in ports (default = 1)
-gpgpu_operand_collector_num_out_ports_mem                    1 # number of collector unit in ports (default = 1)
-gpgpu_operand_collector_num_out_ports_gen                    0 # number of collector unit in ports (default = 0)
-gpgpu_coalesce_arch                   13 # Coalescing arch (default = 13, anything else is off for now)
-gpgpu_num_sched_per_core                    2 # Number of warp schedulers per core
-gpgpu_max_insn_issue_per_warp                    1 # Max number of instructions that can be issued per warp in one cycle by scheduler
-gpgpu_simt_core_sim_order                    1 # Select the simulation order of cores in a cluster (0=Fix, 1=Round-Robin)
-gpgpu_pipeline_widths        2,1,1,2,1,1,2 # Pipeline widths ID_OC_SP,ID_OC_SFU,ID_OC_MEM,OC_EX_SP,OC_EX_SFU,OC_EX_MEM,EX_WB
-gpgpu_num_sp_units                     2 # Number of SP units (default=1)
-gpgpu_num_sfu_units                    1 # Number of SF units (default=1)
-gpgpu_num_mem_units                    1 # Number if ldst units (default=1) WARNING: not hooked up to anything
-gpgpu_scheduler                      gto # Scheduler configuration: < lrr | gto | two_level_active > If two_level_active:<num_active_warps>:<inner_prioritization>:<outer_prioritization>For complete list of prioritization values see shader.h enum scheduler_prioritization_typeDefault: gto
-gpgpu_dram_scheduler                    1 # 0 = fifo, 1 = FR-FCFS (defaul)
-gpgpu_dram_partition_queues              8:8:8:8 # i2$:$2d:d2$:$2i
-l2_ideal                               0 # Use a ideal L2 cache that always hit
-gpgpu_cache:dl2     64:128:8,L:B:m:W:L,A:32:4,4:0,32 # unified banked L2 data cache config  {<nsets>:<bsize>:<assoc>,<rep>:<wr>:<alloc>:<wr_alloc>,<mshr>:<N>:<merge>,<mq>}
-gpgpu_cache:dl2_texture_only                    0 # L2 cache used for texture only
-gpgpu_n_mem                            6 # number of memory modules (e.g. memory controllers) in gpu
-gpgpu_n_sub_partition_per_mchannel                    2 # number of memory subpartition in each memory module
-gpgpu_n_mem_per_ctrlr                    2 # number of memory chips per memory controller
-gpgpu_memlatency_stat                   14 # track and display latency statistics 0x2 enables MC, 0x4 enables queue logs
-gpgpu_frfcfs_dram_sched_queue_size                   16 # 0 = unlimited (default); # entries per chip
-gpgpu_dram_return_queue_size                  116 # 0 = unlimited (default); # entries per chip
-gpgpu_dram_buswidth                    4 # default = 4 bytes (8 bytes per cycle at DDR)
-gpgpu_dram_burst_length                    8 # Burst length of each DRAM request (default = 4 data bus cycle)
-dram_data_command_freq_ratio                    4 # Frequency ratio between DRAM data bus and command bus (default = 2 times, i.e. DDR)
-gpgpu_dram_timing_opt nbk=16:CCD=2:RRD=6:RCD=12:RAS=28:RP=12:RC=40: CL=12:WL=4:CDLR=5:WR=12:nbkgrp=4:CCDL=3:RTPL=2 # DRAM timing parameters = {nbk:tCCD:tRRD:tRCD:tRAS:tRP:tRC:CL:WL:tCDLR:tWR:nbkgrp:tCCDL:tRTPL}
-rop_latency                          120 # ROP queue latency (default 85)
-dram_latency                         100 # DRAM latency (default 30)
-gpgpu_mem_addr_mapping dramid@8;00000000.00000000.00000000.00000000.0000RRRR.RRRRRRRR.BBBCCCCB.CCSSSSSS # mapping memory address to dram model {dramid@<start bit>;<memory address map>}
-gpgpu_mem_addr_test                    0 # run sweep test to check address mapping for aliased address
-gpgpu_mem_address_mask                    1 # 0 = old addressing mask, 1 = new addressing mask, 2 = new add. mask + flipped bank sel and chip sel bits
-gpuwattch_xml_file  gpuwattch_gtx480.xml # GPUWattch XML file
-power_simulation_enabled                    1 # Turn on power simulator (1=On, 0=Off)
-power_per_cycle_dump                    0 # Dump detailed power output each cycle
-power_trace_enabled                    0 # produce a file for the power trace (1=On, 0=Off)
-power_trace_zlevel                     6 # Compression level of the power trace output log (0=no comp, 9=highest)
-steady_power_levels_enabled                    0 # produce a file for the steady power levels (1=On, 0=Off)
-steady_state_definition                  8:4 # allowed deviation:number of samples
-gpgpu_max_cycle                        0 # terminates gpu simulation early (0 = no limit)
-gpgpu_max_insn                         0 # terminates gpu simulation early (0 = no limit)
-gpgpu_max_cta                          0 # terminates gpu simulation early (0 = no limit)
-gpgpu_runtime_stat                   500 # display runtime statistics such as dram utilization {<freq>:<flag>}
-liveness_message_freq                    1 # Minimum number of seconds between simulation liveness messages (0 = always print)
-gpgpu_flush_l1_cache                    0 # Flush L1 cache at the end of each kernel call
-gpgpu_flush_l2_cache                    0 # Flush L2 cache at the end of each kernel call
-gpgpu_deadlock_detect                    1 # Stop the simulation at deadlock (1=on (default), 0=off)
-gpgpu_ptx_instruction_classification                    0 # if enabled will classify ptx instruction types per kernel (Max 255 kernels now)
-gpgpu_ptx_sim_mode                     0 # Select between Performance (default) or Functional simulation (1)
-gpgpu_clock_domains 700.0:700.0:700.0:924.0 # Clock Domain Frequencies in MhZ {<Core Clock>:<ICNT Clock>:<L2 Clock>:<DRAM Clock>}
-gpgpu_max_concurrent_kernel                    8 # maximum kernels that can run concurrently on GPU
-gpgpu_cflog_interval                    0 # Interval between each snapshot in control flow logger
-visualizer_enabled                     0 # Turn on visualizer output (1=On, 0=Off)
-visualizer_outputfile                 NULL # Specifies the output log file for visualizer
-visualizer_zlevel                      6 # Compression level of the visualizer output log (0=no comp, 9=highest)
-trace_enabled                          0 # Turn on traces
-trace_components                    none # comma seperated list of traces to enable. Complete list found in trace_streams.tup. Default none
-trace_sampling_core                    0 # The core which is printed using CORE_DPRINTF. Default 0
-trace_sampling_memory_partition                   -1 # The memory partition which is printed using MEMPART_DPRINTF. Default -1 (i.e. all)
-enable_ptx_file_line_stats                    1 # Turn on PTX source line statistic profiling. (1 = On)
-ptx_line_stats_filename gpgpu_inst_stats.txt # Output file for PTX source line statistics.
-save_embedded_ptx                      0 # saves ptx files embedded in binary as <n>.ptx
-keep                                   0 # keep intermediate files created by GPGPU-Sim when interfacing with external programs
-gpgpu_ptx_save_converted_ptxplus                    0 # Saved converted ptxplus to a file
-ptx_opcode_latency_int         4,13,4,5,145 # Opcode latencies for integers <ADD,MAX,MUL,MAD,DIV>Default 1,1,19,25,145
-ptx_opcode_latency_fp          4,13,4,5,39 # Opcode latencies for single precision floating points <ADD,MAX,MUL,MAD,DIV>Default 1,1,1,1,30
-ptx_opcode_latency_dp         8,19,8,8,330 # Opcode latencies for double precision floating points <ADD,MAX,MUL,MAD,DIV>Default 8,8,8,8,335
-ptx_opcode_initiation_int            1,2,2,1,8 # Opcode initiation intervals for integers <ADD,MAX,MUL,MAD,DIV>Default 1,1,4,4,32
-ptx_opcode_initiation_fp            1,2,1,1,4 # Opcode initiation intervals for single precision floating points <ADD,MAX,MUL,MAD,DIV>Default 1,1,1,1,5
-ptx_opcode_initiation_dp         8,16,8,8,130 # Opcode initiation intervals for double precision floating points <ADD,MAX,MUL,MAD,DIV>Default 8,8,8,8,130
DRAM Timing Options:
nbk                                    16 # number of banks
CCD                                     2 # column to column delay
RRD                                     6 # minimal delay between activation of rows in different banks
RCD                                    12 # row to column delay
RAS                                    28 # time needed to activate row
RP                                     12 # time needed to precharge (deactivate) row
RC                                     40 # row cycle time
CDLR                                    5 # switching from write to read (changes tWTR)
WR                                     12 # last data-in to row precharge
CL                                     12 # CAS latency
WL                                      4 # Write latency
nbkgrp                                  4 # number of bank groups
CCDL                                    3 # column to column delay between accesses to different bank groups
RTPL                                    2 # read to precharge delay between accesses to different bank groups
Total number of memory sub partition = 12
addr_dec_mask[CHIP]  = 0000000000000000 	high:64 low:0
addr_dec_mask[BK]    = 000000000000e100 	high:16 low:8
addr_dec_mask[ROW]   = 000000000fff0000 	high:28 low:16
addr_dec_mask[COL]   = 0000000000001eff 	high:13 low:0
addr_dec_mask[BURST] = 000000000000003f 	high:6 low:0
sub_partition_id_mask = 0000000000000100
GPGPU-Sim uArch: clock freqs: 700000000.000000:700000000.000000:700000000.000000:924000000.000000
GPGPU-Sim uArch: clock periods: 0.00000000142857142857:0.00000000142857142857:0.00000000142857142857:0.00000000108225108225
*** Initializing Memory Statistics ***
GPGPU-Sim uArch: interconnect node map (shaderID+MemID to icntID)
GPGPU-Sim uArch: Memory nodes ID start from index: 15
GPGPU-Sim uArch:    0   1   2   3   4
GPGPU-Sim uArch:    5   6   7   8   9
GPGPU-Sim uArch:   10  11  12  13  14
GPGPU-Sim uArch:   15  16  17  18  19
GPGPU-Sim uArch:   20  21  22  23  24
GPGPU-Sim uArch:   25  26
GPGPU-Sim uArch: interconnect node reverse map (icntID to shaderID+MemID)
GPGPU-Sim uArch: Memory nodes start from ID: 15
GPGPU-Sim uArch:    0   1   2   3   4
GPGPU-Sim uArch:    5   6   7   8   9
GPGPU-Sim uArch:   10  11  12  13  14
GPGPU-Sim uArch:   15  16  17  18  19
GPGPU-Sim uArch:   20  21  22  23  24
GPGPU-Sim uArch:   25  26
0e45c2837ef922d4d039594b0dc02f36  /root/reduction-berserker1/reduction-optimized
GPGPU-Sim uArch: performance model initialization complete.
GPGPU-Sim PTX: __cudaRegisterFatBinary, fat_cubin_handle = 1, filename=main.cu
self exe links to: /root/reduction-berserker1/reduction-optimized
Running md5sum using "md5sum /root/reduction-berserker1/reduction-optimized "
Running cuobjdump using "$CUDA_INSTALL_PATH/bin/cuobjdump -ptx -elf -sass /root/reduction-berserker1/reduction-optimized > _cuobjdump_complete_output_Lip22e"
Parsing file _cuobjdump_complete_output_Lip22e
######### cuobjdump parser ########
## Adding new section PTX
Adding ptx filename: _cuobjdump_1.ptx
Adding arch: sm_10
Adding identifier: main.cu
## Adding new section ELF
Adding arch: sm_10
Adding identifier: main.cu
## Adding new section ELF
Adding arch: sm_10
Adding identifier: support.cu
## Adding new section PTX
Adding ptx filename: _cuobjdump_2.ptx
Adding arch: sm_10
Adding identifier: support.cu
Done parsing!!!
GPGPU-Sim PTX: __cudaRegisterFunction _Z18optimizedReductionPfS_j : hostFun 0x0x400f50, fat_cubin_handle = 1
GPGPU-Sim PTX: allocating shared region for "__cuda___cuda_local_var_31385_35_non_const_partialsum20" from 0x0 to 0x1000 (shared memory space)
GPGPU-Sim PTX: instruction assembly for function '_Z14naiveReductionPfS_j'...   done.
GPGPU-Sim PTX: finding reconvergence points for '_Z14naiveReductionPfS_j'...
GPGPU-Sim PTX: Finding dominators for '_Z14naiveReductionPfS_j'...
GPGPU-Sim PTX: Finding immediate dominators for '_Z14naiveReductionPfS_j'...
GPGPU-Sim PTX: Finding postdominators for '_Z14naiveReductionPfS_j'...
GPGPU-Sim PTX: Finding immediate postdominators for '_Z14naiveReductionPfS_j'...
GPGPU-Sim PTX: pre-decoding instructions for '_Z14naiveReductionPfS_j'...
GPGPU-Sim PTX: reconvergence points for _Z14naiveReductionPfS_j...
GPGPU-Sim PTX:  1 (potential) branch divergence @  PC=0x040 (_1.ptx:70) @%p1 bra $Lt_0_6146;
GPGPU-Sim PTX:    immediate post dominator      @  PC=0x098 (_1.ptx:83) mov.u64 %rd1, __cuda___cuda_local_var_31385_35_non_const_partialsum20;
GPGPU-Sim PTX:  2 (potential) branch divergence @  PC=0x0b8 (_1.ptx:89) @%p2 bra $Lt_0_6658;
GPGPU-Sim PTX:    immediate post dominator      @  PC=0x110 (_1.ptx:103) bar.sync 0;
GPGPU-Sim PTX:  3 (potential) branch divergence @  PC=0x128 (_1.ptx:106) @%p3 bra $Lt_0_7170;
GPGPU-Sim PTX:    immediate post dominator      @  PC=0x248 (_1.ptx:151) mov.u32 %r26, 0;
GPGPU-Sim PTX:  4 (potential) branch divergence @  PC=0x150 (_1.ptx:113) @%p4 bra $Lt_0_7938;
GPGPU-Sim PTX:    immediate post dominator      @  PC=0x228 (_1.ptx:145) bar.sync 0;
GPGPU-Sim PTX:  5 (potential) branch divergence @  PC=0x178 (_1.ptx:118) @%p5 bra $Lt_0_8450;
GPGPU-Sim PTX:    immediate post dominator      @  PC=0x228 (_1.ptx:145) bar.sync 0;
GPGPU-Sim PTX:  6 (potential) branch divergence @  PC=0x1d0 (_1.ptx:129) @%p6 bra $Lt_0_8962;
GPGPU-Sim PTX:    immediate post dominator      @  PC=0x228 (_1.ptx:145) bar.sync 0;
GPGPU-Sim PTX:  7 (potential) branch divergence @  PC=0x240 (_1.ptx:149) @%p7 bra $Lt_0_7682;
GPGPU-Sim PTX:    immediate post dominator      @  PC=0x248 (_1.ptx:151) mov.u32 %r26, 0;
GPGPU-Sim PTX:  8 (potential) branch divergence @  PC=0x258 (_1.ptx:153) @%p8 bra $Lt_0_9730;
GPGPU-Sim PTX:    immediate post dominator      @  PC=0x290 (_1.ptx:163) exit;
GPGPU-Sim PTX: ... end of reconvergence points for _Z14naiveReductionPfS_j
GPGPU-Sim PTX: ... done pre-decoding instructions for '_Z14naiveReductionPfS_j'.
GPGPU-Sim PTX: allocating shared region for "__cuda___cuda_local_var_31445_35_non_const_partialsum4140" from 0x0 to 0x1000 (shared memory space)
GPGPU-Sim PTX: instruction assembly for function '_Z18optimizedReductionPfS_j'...   done.
GPGPU-Sim PTX: finding reconvergence points for '_Z18optimizedReductionPfS_j'...
GPGPU-Sim PTX: Finding dominators for '_Z18optimizedReductionPfS_j'...
GPGPU-Sim PTX: Finding immediate dominators for '_Z18optimizedReductionPfS_j'...
GPGPU-Sim PTX: Finding postdominators for '_Z18optimizedReductionPfS_j'...
GPGPU-Sim PTX: Finding immediate postdominators for '_Z18optimizedReductionPfS_j'...
GPGPU-Sim PTX: pre-decoding instructions for '_Z18optimizedReductionPfS_j'...
GPGPU-Sim PTX: reconvergence points for _Z18optimizedReductionPfS_j...
GPGPU-Sim PTX:  1 (potential) branch divergence @  PC=0x2d8 (_1.ptx:187) @%p1 bra $Lt_1_4610;
GPGPU-Sim PTX:    immediate post dominator      @  PC=0x330 (_1.ptx:200) mov.u64 %rd1, __cuda___cuda_local_var_31445_35_non_const_partialsum4140;
GPGPU-Sim PTX:  2 (potential) branch divergence @  PC=0x350 (_1.ptx:206) @%p2 bra $Lt_1_5122;
GPGPU-Sim PTX:    immediate post dominator      @  PC=0x3a8 (_1.ptx:220) bar.sync 0;
GPGPU-Sim PTX:  3 (potential) branch divergence @  PC=0x3c8 (_1.ptx:225) @%p3 bra $Lt_1_5634;
GPGPU-Sim PTX:    immediate post dominator      @  PC=0x498 (_1.ptx:257) mov.u32 %r21, 0;
GPGPU-Sim PTX:  4 (potential) branch divergence @  PC=0x410 (_1.ptx:235) @%p4 bra $Lt_1_6402;
GPGPU-Sim PTX:    immediate post dominator      @  PC=0x470 (_1.ptx:250) bar.sync 0;
GPGPU-Sim PTX:  5 (potential) branch divergence @  PC=0x490 (_1.ptx:255) @%p5 bra $Lt_1_6146;
GPGPU-Sim PTX:    immediate post dominator      @  PC=0x498 (_1.ptx:257) mov.u32 %r21, 0;
GPGPU-Sim PTX:  6 (potential) branch divergence @  PC=0x4a8 (_1.ptx:259) @%p6 bra $Lt_1_7170;
GPGPU-Sim PTX:    immediate post dominator      @  PC=0x4e0 (_1.ptx:269) exit;
GPGPU-Sim PTX: ... end of reconvergence points for _Z18optimizedReductionPfS_j
GPGPU-Sim PTX: ... done pre-decoding instructions for '_Z18optimizedReductionPfS_j'.
GPGPU-Sim PTX: finished parsing EMBEDDED .ptx file _1.ptx
Adding _cuobjdump_1.ptx with cubin handle 1
GPGPU-Sim PTX: extracting embedded .ptx to temporary file "_ptx_OdRITt"
Running: cat _ptx_OdRITt | sed 's/.version 1.5/.version 1.4/' | sed 's/, texmode_independent//' | sed 's/\(\.extern \.const\[1\] .b8 \w\+\)\[\]/\1\[1\]/' | sed 's/const\[.\]/const\[0\]/g' > _ptx2_jcjqKI
GPGPU-Sim PTX: generating ptxinfo using "$CUDA_INSTALL_PATH/bin/ptxas --gpu-name=sm_20 -v _ptx2_jcjqKI --output-file  /dev/null 2> _ptx_OdRITtinfo"
GPGPU-Sim PTX: Kernel '_Z18optimizedReductionPfS_j' : regs=10, lmem=0, smem=4096, cmem=52
GPGPU-Sim PTX: Kernel '_Z14naiveReductionPfS_j' : regs=10, lmem=0, smem=4096, cmem=52
GPGPU-Sim PTX: removing ptxinfo using "rm -f _ptx_OdRITt _ptx2_jcjqKI _ptx_OdRITtinfo"
GPGPU-Sim PTX: loading globals with explicit initializers... 
GPGPU-Sim PTX: finished loading globals (0 bytes total).
GPGPU-Sim PTX: loading constants with explicit initializers...  done.
GPGPU-Sim PTX: __cudaRegisterFunction _Z14naiveReductionPfS_j : hostFun 0x0x400ed0, fat_cubin_handle = 1
GPGPU-Sim PTX: __cudaRegisterFatBinary, fat_cubin_handle = 2, filename=support.cu

Setting up the problem...0.092262 s
    Input size = 1000000
Allocating device variables...Pointer 80000000, 803d0900
0.000088 s
Copying data from host to device...0.325970 s
Launching kernel...
GPGPU-Sim PTX: cudaLaunch for 0x0x400f50 (mode=performance simulation) on stream 0
GPGPU-Sim PTX: pushing kernel '_Z18optimizedReductionPfS_j' to stream 0, gridDim= (977,1,1) blockDim = (512,1,1) 
kernel '_Z18optimizedReductionPfS_j' transfer to GPU hardware scheduler
GPGPU-Sim uArch: Shader 1 bind to kernel 1 '_Z18optimizedReductionPfS_j'
GPGPU-Sim uArch: CTA/core = 3, limited by: threads
GPGPU-Sim uArch: core:  1, cta: 0 initialized @(1,0)
GPGPU-Sim uArch: Shader 2 bind to kernel 1 '_Z18optimizedReductionPfS_j'
GPGPU-Sim uArch: core:  2, cta: 0 initialized @(1,0)
GPGPU-Sim uArch: Shader 3 bind to kernel 1 '_Z18optimizedReductionPfS_j'
GPGPU-Sim uArch: core:  3, cta: 0 initialized @(1,0)
GPGPU-Sim uArch: Shader 4 bind to kernel 1 '_Z18optimizedReductionPfS_j'
GPGPU-Sim uArch: core:  4, cta: 0 initialized @(1,0)
GPGPU-Sim uArch: Shader 5 bind to kernel 1 '_Z18optimizedReductionPfS_j'
GPGPU-Sim uArch: core:  5, cta: 0 initialized @(1,0)
GPGPU-Sim uArch: Shader 6 bind to kernel 1 '_Z18optimizedReductionPfS_j'
GPGPU-Sim uArch: core:  6, cta: 0 initialized @(1,0)
GPGPU-Sim uArch: Shader 7 bind to kernel 1 '_Z18optimizedReductionPfS_j'
GPGPU-Sim uArch: core:  7, cta: 0 initialized @(1,0)
GPGPU-Sim uArch: Shader 8 bind to kernel 1 '_Z18optimizedReductionPfS_j'
GPGPU-Sim uArch: core:  8, cta: 0 initialized @(1,0)
GPGPU-Sim uArch: Shader 9 bind to kernel 1 '_Z18optimizedReductionPfS_j'
GPGPU-Sim uArch: core:  9, cta: 0 initialized @(1,0)
GPGPU-Sim uArch: Shader 10 bind to kernel 1 '_Z18optimizedReductionPfS_j'
GPGPU-Sim uArch: core: 10, cta: 0 initialized @(1,0)
GPGPU-Sim uArch: Shader 11 bind to kernel 1 '_Z18optimizedReductionPfS_j'
GPGPU-Sim uArch: core: 11, cta: 0 initialized @(1,0)
GPGPU-Sim uArch: Shader 12 bind to kernel 1 '_Z18optimizedReductionPfS_j'
GPGPU-Sim uArch: core: 12, cta: 0 initialized @(1,0)
GPGPU-Sim uArch: Shader 13 bind to kernel 1 '_Z18optimizedReductionPfS_j'
GPGPU-Sim uArch: core: 13, cta: 0 initialized @(1,0)
GPGPU-Sim uArch: Shader 14 bind to kernel 1 '_Z18optimizedReductionPfS_j'
GPGPU-Sim uArch: core: 14, cta: 0 initialized @(1,0)
GPGPU-Sim uArch: Shader 0 bind to kernel 1 '_Z18optimizedReductionPfS_j'
GPGPU-Sim uArch: core:  0, cta: 0 initialized @(1,0)
GPGPU-Sim uArch: core:  1, cta: 1 initialized @(2,0)
GPGPU-Sim uArch: core:  2, cta: 1 initialized @(2,0)
GPGPU-Sim uArch: core:  3, cta: 1 initialized @(2,0)
GPGPU-Sim uArch: core:  4, cta: 1 initialized @(2,0)
GPGPU-Sim uArch: core:  5, cta: 1 initialized @(2,0)
GPGPU-Sim uArch: core:  6, cta: 1 initialized @(2,0)
GPGPU-Sim uArch: core:  7, cta: 1 initialized @(2,0)
GPGPU-Sim uArch: core:  8, cta: 1 initialized @(2,0)
GPGPU-Sim uArch: core:  9, cta: 1 initialized @(2,0)
GPGPU-Sim uArch: core: 10, cta: 1 initialized @(2,0)
GPGPU-Sim uArch: core: 11, cta: 1 initialized @(2,0)
GPGPU-Sim uArch: core: 12, cta: 1 initialized @(2,0)
GPGPU-Sim uArch: core: 13, cta: 1 initialized @(2,0)
GPGPU-Sim uArch: core: 14, cta: 1 initialized @(2,0)
GPGPU-Sim uArch: core:  0, cta: 1 initialized @(2,0)
GPGPU-Sim uArch: core:  1, cta: 2 initialized @(3,0)
GPGPU-Sim uArch: core:  2, cta: 2 initialized @(3,0)
GPGPU-Sim uArch: core:  3, cta: 2 initialized @(3,0)
GPGPU-Sim uArch: core:  4, cta: 2 initialized @(3,0)
GPGPU-Sim uArch: core:  5, cta: 2 initialized @(3,0)
GPGPU-Sim uArch: core:  6, cta: 2 initialized @(3,0)
GPGPU-Sim uArch: core:  7, cta: 2 initialized @(3,0)
GPGPU-Sim uArch: core:  8, cta: 2 initialized @(3,0)
GPGPU-Sim uArch: core:  9, cta: 2 initialized @(3,0)
GPGPU-Sim uArch: core: 10, cta: 2 initialized @(3,0)
GPGPU-Sim uArch: core: 11, cta: 2 initialized @(3,0)
GPGPU-Sim uArch: core: 12, cta: 2 initialized @(3,0)
GPGPU-Sim uArch: core: 13, cta: 2 initialized @(3,0)
GPGPU-Sim uArch: core: 14, cta: 2 initialized @(3,0)
GPGPU-Sim uArch: core:  0, cta: 2 initialized @(3,0)
GPGPU-Sim PTX: 100000 instructions simulated : ctaid=(27,0,0) tid=(63,0,0)
GPGPU-Sim uArch: cycles simulated: 500  inst.: 103904 (ipc=207.8) sim_rate=51952 (inst/sec) elapsed = 0:0:00:02 / Tue Oct 31 01:22:37 2023
GPGPU-Sim PTX: 200000 instructions simulated : ctaid=(6,0,0) tid=(319,0,0)
GPGPU-Sim PTX: 300000 instructions simulated : ctaid=(26,0,0) tid=(319,0,0)
GPGPU-Sim uArch: cycles simulated: 1000  inst.: 305888 (ipc=305.9) sim_rate=101962 (inst/sec) elapsed = 0:0:00:03 / Tue Oct 31 01:22:38 2023
GPGPU-Sim PTX: 400000 instructions simulated : ctaid=(16,0,0) tid=(511,0,0)
GPGPU-Sim uArch: cycles simulated: 1500  inst.: 410912 (ipc=273.9) sim_rate=102728 (inst/sec) elapsed = 0:0:00:04 / Tue Oct 31 01:22:39 2023
GPGPU-Sim PTX: 500000 instructions simulated : ctaid=(27,0,0) tid=(479,0,0)
GPGPU-Sim PTX: 600000 instructions simulated : ctaid=(11,0,0) tid=(511,0,0)
GPGPU-Sim PTX: 700000 instructions simulated : ctaid=(27,0,0) tid=(95,0,0)
GPGPU-Sim uArch: cycles simulated: 2000  inst.: 655456 (ipc=327.7) sim_rate=109242 (inst/sec) elapsed = 0:0:00:06 / Tue Oct 31 01:22:41 2023
GPGPU-Sim PTX: 800000 instructions simulated : ctaid=(2,0,0) tid=(159,0,0)
GPGPU-Sim PTX: 900000 instructions simulated : ctaid=(29,0,0) tid=(383,0,0)
GPGPU-Sim uArch: cycles simulated: 2500  inst.: 865984 (ipc=346.4) sim_rate=123712 (inst/sec) elapsed = 0:0:00:07 / Tue Oct 31 01:22:42 2023
GPGPU-Sim PTX: 1000000 instructions simulated : ctaid=(40,0,0) tid=(287,0,0)
GPGPU-Sim PTX: 1100000 instructions simulated : ctaid=(41,0,0) tid=(383,0,0)
GPGPU-Sim PTX: 1200000 instructions simulated : ctaid=(4,0,0) tid=(447,0,0)
GPGPU-Sim PTX: 1300000 instructions simulated : ctaid=(34,0,0) tid=(159,0,0)
GPGPU-Sim uArch: cycles simulated: 3000  inst.: 1262496 (ipc=420.8) sim_rate=157812 (inst/sec) elapsed = 0:0:00:08 / Tue Oct 31 01:22:43 2023
GPGPU-Sim PTX: 1400000 instructions simulated : ctaid=(1,0,0) tid=(415,0,0)
GPGPU-Sim PTX: 1500000 instructions simulated : ctaid=(0,0,0) tid=(95,0,0)
GPGPU-Sim PTX: 1600000 instructions simulated : ctaid=(15,0,0) tid=(191,0,0)
GPGPU-Sim PTX: 1700000 instructions simulated : ctaid=(8,0,0) tid=(31,0,0)
GPGPU-Sim uArch: cycles simulated: 3500  inst.: 1655296 (ipc=472.9) sim_rate=165529 (inst/sec) elapsed = 0:0:00:10 / Tue Oct 31 01:22:45 2023
GPGPU-Sim PTX: 1800000 instructions simulated : ctaid=(13,0,0) tid=(511,0,0)
GPGPU-Sim PTX: 1900000 instructions simulated : ctaid=(42,0,0) tid=(31,0,0)
GPGPU-Sim PTX: 2000000 instructions simulated : ctaid=(26,0,0) tid=(95,0,0)
GPGPU-Sim PTX: 2100000 instructions simulated : ctaid=(14,0,0) tid=(95,0,0)
GPGPU-Sim uArch: cycles simulated: 4000  inst.: 2082816 (ipc=520.7) sim_rate=189346 (inst/sec) elapsed = 0:0:00:11 / Tue Oct 31 01:22:46 2023
GPGPU-Sim PTX: 2200000 instructions simulated : ctaid=(9,0,0) tid=(415,0,0)
GPGPU-Sim PTX: 2300000 instructions simulated : ctaid=(21,0,0) tid=(63,0,0)
GPGPU-Sim PTX: 2400000 instructions simulated : ctaid=(1,0,0) tid=(511,0,0)
GPGPU-Sim PTX: 2500000 instructions simulated : ctaid=(41,0,0) tid=(319,0,0)
GPGPU-Sim PTX: 2600000 instructions simulated : ctaid=(23,0,0) tid=(431,0,0)
GPGPU-Sim uArch: cycles simulated: 4500  inst.: 2507904 (ipc=557.3) sim_rate=208992 (inst/sec) elapsed = 0:0:00:12 / Tue Oct 31 01:22:47 2023
GPGPU-Sim PTX: 2700000 instructions simulated : ctaid=(29,0,0) tid=(79,0,0)
GPGPU-Sim PTX: 2800000 instructions simulated : ctaid=(35,0,0) tid=(255,0,0)
GPGPU-Sim PTX: 2900000 instructions simulated : ctaid=(2,0,0) tid=(231,0,0)
GPGPU-Sim PTX: 3000000 instructions simulated : ctaid=(20,0,0) tid=(215,0,0)
GPGPU-Sim uArch: cycles simulated: 5000  inst.: 2918736 (ipc=583.7) sim_rate=208481 (inst/sec) elapsed = 0:0:00:14 / Tue Oct 31 01:22:49 2023
GPGPU-Sim PTX: 3100000 instructions simulated : ctaid=(21,0,0) tid=(295,0,0)
GPGPU-Sim PTX: 3200000 instructions simulated : ctaid=(8,0,0) tid=(163,0,0)
GPGPU-Sim PTX: 3300000 instructions simulated : ctaid=(10,0,0) tid=(71,0,0)
GPGPU-Sim PTX: 3400000 instructions simulated : ctaid=(38,0,0) tid=(7,0,0)
GPGPU-Sim uArch: cycles simulated: 5500  inst.: 3333272 (ipc=606.0) sim_rate=222218 (inst/sec) elapsed = 0:0:00:15 / Tue Oct 31 01:22:50 2023
GPGPU-Sim PTX: 3500000 instructions simulated : ctaid=(29,0,0) tid=(505,0,0)
GPGPU-Sim PTX: 3600000 instructions simulated : ctaid=(21,0,0) tid=(3,0,0)
GPGPU-Sim PTX: 3700000 instructions simulated : ctaid=(22,0,0) tid=(271,0,0)
GPGPU-Sim PTX: 3800000 instructions simulated : ctaid=(4,0,0) tid=(46,0,0)
GPGPU-Sim uArch: cycles simulated: 6000  inst.: 3737634 (ipc=622.9) sim_rate=233602 (inst/sec) elapsed = 0:0:00:16 / Tue Oct 31 01:22:51 2023
GPGPU-Sim PTX: 3900000 instructions simulated : ctaid=(6,0,0) tid=(22,0,0)
GPGPU-Sim PTX: 4000000 instructions simulated : ctaid=(16,0,0) tid=(133,0,0)
GPGPU-Sim PTX: 4100000 instructions simulated : ctaid=(41,0,0) tid=(113,0,0)
GPGPU-Sim uArch: Shader 10 finished CTA #0 (6423,0), 2 CTAs running
GPGPU-Sim uArch: core: 10, cta: 0 initialized @(6424,0)
GPGPU-Sim PTX: 4200000 instructions simulated : ctaid=(32,0,0) tid=(24,0,0)
GPGPU-Sim uArch: Shader 11 finished CTA #0 (6442,0), 2 CTAs running
GPGPU-Sim uArch: core: 11, cta: 0 initialized @(6443,0)
GPGPU-Sim uArch: Shader 14 finished CTA #0 (6443,0), 2 CTAs running
GPGPU-Sim uArch: core: 14, cta: 0 initialized @(6444,0)
GPGPU-Sim uArch: Shader 2 finished CTA #0 (6466,0), 2 CTAs running
GPGPU-Sim uArch: core:  2, cta: 0 initialized @(6467,0)
GPGPU-Sim uArch: Shader 1 finished CTA #0 (6468,0), 2 CTAs running
GPGPU-Sim uArch: core:  1, cta: 0 initialized @(6469,0)
GPGPU-Sim uArch: Shader 4 finished CTA #0 (6470,0), 2 CTAs running
GPGPU-Sim uArch: core:  4, cta: 0 initialized @(6471,0)
GPGPU-Sim uArch: Shader 0 finished CTA #0 (6473,0), 2 CTAs running
GPGPU-Sim uArch: core:  0, cta: 0 initialized @(6474,0)
GPGPU-Sim uArch: Shader 8 finished CTA #0 (6488,0), 2 CTAs running
GPGPU-Sim uArch: core:  8, cta: 0 initialized @(6489,0)
GPGPU-Sim uArch: Shader 13 finished CTA #0 (6492,0), 2 CTAs running
GPGPU-Sim uArch: core: 13, cta: 0 initialized @(6493,0)
GPGPU-Sim uArch: Shader 7 finished CTA #0 (6498,0), 2 CTAs running
GPGPU-Sim uArch: core:  7, cta: 0 initialized @(6499,0)
GPGPU-Sim uArch: cycles simulated: 6500  inst.: 4108789 (ipc=632.1) sim_rate=228266 (inst/sec) elapsed = 0:0:00:18 / Tue Oct 31 01:22:53 2023
GPGPU-Sim uArch: Shader 9 finished CTA #0 (6510,0), 2 CTAs running
GPGPU-Sim uArch: core:  9, cta: 0 initialized @(6511,0)
GPGPU-Sim uArch: Shader 5 finished CTA #0 (6511,0), 2 CTAs running
GPGPU-Sim uArch: core:  5, cta: 0 initialized @(6512,0)
GPGPU-Sim uArch: Shader 12 finished CTA #0 (6525,0), 2 CTAs running
GPGPU-Sim uArch: core: 12, cta: 0 initialized @(6526,0)
GPGPU-Sim uArch: Shader 3 finished CTA #0 (6528,0), 2 CTAs running
GPGPU-Sim uArch: core:  3, cta: 0 initialized @(6529,0)
GPGPU-Sim uArch: Shader 10 finished CTA #1 (6539,0), 2 CTAs running
GPGPU-Sim uArch: core: 10, cta: 1 initialized @(6540,0)
GPGPU-Sim PTX: 4300000 instructions simulated : ctaid=(47,0,0) tid=(173,0,0)
GPGPU-Sim uArch: Shader 4 finished CTA #1 (6577,0), 2 CTAs running
GPGPU-Sim uArch: core:  4, cta: 1 initialized @(6578,0)
GPGPU-Sim uArch: Shader 0 finished CTA #1 (6582,0), 2 CTAs running
GPGPU-Sim uArch: core:  0, cta: 1 initialized @(6583,0)
GPGPU-Sim uArch: Shader 7 finished CTA #1 (6606,0), 2 CTAs running
GPGPU-Sim uArch: core:  7, cta: 1 initialized @(6607,0)
GPGPU-Sim uArch: Shader 1 finished CTA #1 (6611,0), 2 CTAs running
GPGPU-Sim uArch: core:  1, cta: 1 initialized @(6612,0)
GPGPU-Sim uArch: Shader 14 finished CTA #1 (6614,0), 2 CTAs running
GPGPU-Sim uArch: core: 14, cta: 1 initialized @(6615,0)
GPGPU-Sim uArch: Shader 5 finished CTA #1 (6622,0), 2 CTAs running
GPGPU-Sim uArch: core:  5, cta: 1 initialized @(6623,0)
GPGPU-Sim uArch: Shader 2 finished CTA #1 (6641,0), 2 CTAs running
GPGPU-Sim uArch: core:  2, cta: 1 initialized @(6642,0)
GPGPU-Sim uArch: Shader 13 finished CTA #1 (6652,0), 2 CTAs running
GPGPU-Sim uArch: core: 13, cta: 1 initialized @(6653,0)
GPGPU-Sim uArch: Shader 9 finished CTA #1 (6670,0), 2 CTAs running
GPGPU-Sim uArch: core:  9, cta: 1 initialized @(6671,0)
GPGPU-Sim uArch: Shader 6 finished CTA #0 (6678,0), 2 CTAs running
GPGPU-Sim uArch: core:  6, cta: 0 initialized @(6679,0)
GPGPU-Sim PTX: 4400000 instructions simulated : ctaid=(50,0,0) tid=(114,0,0)
GPGPU-Sim uArch: Shader 3 finished CTA #1 (6693,0), 2 CTAs running
GPGPU-Sim uArch: core:  3, cta: 1 initialized @(6694,0)
GPGPU-Sim uArch: Shader 12 finished CTA #1 (6699,0), 2 CTAs running
GPGPU-Sim uArch: core: 12, cta: 1 initialized @(6700,0)
GPGPU-Sim uArch: Shader 8 finished CTA #1 (6725,0), 2 CTAs running
GPGPU-Sim uArch: core:  8, cta: 1 initialized @(6726,0)
GPGPU-Sim PTX: 4500000 instructions simulated : ctaid=(57,0,0) tid=(141,0,0)
GPGPU-Sim uArch: Shader 11 finished CTA #1 (6837,0), 2 CTAs running
GPGPU-Sim uArch: core: 11, cta: 1 initialized @(6838,0)
GPGPU-Sim PTX: 4600000 instructions simulated : ctaid=(44,0,0) tid=(229,0,0)
GPGPU-Sim uArch: Shader 6 finished CTA #1 (6949,0), 2 CTAs running
GPGPU-Sim uArch: core:  6, cta: 1 initialized @(6950,0)
GPGPU-Sim uArch: cycles simulated: 7000  inst.: 4505154 (ipc=643.6) sim_rate=225257 (inst/sec) elapsed = 0:0:00:20 / Tue Oct 31 01:22:55 2023
GPGPU-Sim PTX: 4700000 instructions simulated : ctaid=(62,0,0) tid=(451,0,0)
GPGPU-Sim PTX: 4800000 instructions simulated : ctaid=(42,0,0) tid=(151,0,0)
GPGPU-Sim PTX: 4900000 instructions simulated : ctaid=(66,0,0) tid=(11,0,0)
GPGPU-Sim PTX: 5000000 instructions simulated : ctaid=(37,0,0) tid=(19,0,0)
GPGPU-Sim PTX: 5100000 instructions simulated : ctaid=(36,0,0) tid=(25,0,0)
GPGPU-Sim uArch: cycles simulated: 7500  inst.: 4931039 (ipc=657.5) sim_rate=234811 (inst/sec) elapsed = 0:0:00:21 / Tue Oct 31 01:22:56 2023
GPGPU-Sim PTX: 5200000 instructions simulated : ctaid=(45,0,0) tid=(188,0,0)
GPGPU-Sim PTX: 5300000 instructions simulated : ctaid=(49,0,0) tid=(241,0,0)
GPGPU-Sim uArch: Shader 2 finished CTA #2 (7773,0), 2 CTAs running
GPGPU-Sim uArch: core:  2, cta: 2 initialized @(7774,0)
GPGPU-Sim uArch: Shader 6 finished CTA #2 (7851,0), 2 CTAs running
GPGPU-Sim uArch: core:  6, cta: 2 initialized @(7852,0)
GPGPU-Sim uArch: Shader 5 finished CTA #2 (7861,0), 2 CTAs running
GPGPU-Sim uArch: core:  5, cta: 2 initialized @(7862,0)
GPGPU-Sim PTX: 5400000 instructions simulated : ctaid=(76,0,0) tid=(0,0,0)
GPGPU-Sim uArch: Shader 1 finished CTA #2 (7870,0), 2 CTAs running
GPGPU-Sim uArch: core:  1, cta: 2 initialized @(7871,0)
GPGPU-Sim uArch: Shader 3 finished CTA #2 (7880,0), 2 CTAs running
GPGPU-Sim uArch: core:  3, cta: 2 initialized @(7881,0)
GPGPU-Sim uArch: Shader 12 finished CTA #2 (7889,0), 2 CTAs running
GPGPU-Sim uArch: core: 12, cta: 2 initialized @(7890,0)
GPGPU-Sim uArch: Shader 0 finished CTA #2 (7894,0), 2 CTAs running
GPGPU-Sim uArch: Shader 4 finished CTA #2 (7894,0), 2 CTAs running
GPGPU-Sim uArch: core:  0, cta: 2 initialized @(7895,0)
GPGPU-Sim uArch: core:  4, cta: 2 initialized @(7895,0)
GPGPU-Sim uArch: Shader 11 finished CTA #2 (7902,0), 2 CTAs running
GPGPU-Sim uArch: core: 11, cta: 2 initialized @(7903,0)
GPGPU-Sim uArch: Shader 9 finished CTA #2 (7910,0), 2 CTAs running
GPGPU-Sim uArch: core:  9, cta: 2 initialized @(7911,0)
GPGPU-Sim uArch: Shader 8 finished CTA #2 (7920,0), 2 CTAs running
GPGPU-Sim uArch: core:  8, cta: 2 initialized @(7921,0)
GPGPU-Sim uArch: Shader 13 finished CTA #2 (7937,0), 2 CTAs running
GPGPU-Sim uArch: core: 13, cta: 2 initialized @(7938,0)
GPGPU-Sim uArch: Shader 7 finished CTA #2 (7940,0), 2 CTAs running
GPGPU-Sim uArch: core:  7, cta: 2 initialized @(7941,0)
GPGPU-Sim PTX: 5500000 instructions simulated : ctaid=(68,0,0) tid=(0,0,0)
GPGPU-Sim uArch: Shader 10 finished CTA #2 (7988,0), 2 CTAs running
GPGPU-Sim uArch: core: 10, cta: 2 initialized @(7989,0)
GPGPU-Sim uArch: cycles simulated: 8000  inst.: 5315615 (ipc=664.5) sim_rate=231113 (inst/sec) elapsed = 0:0:00:23 / Tue Oct 31 01:22:58 2023
GPGPU-Sim uArch: Shader 14 finished CTA #2 (8010,0), 2 CTAs running
GPGPU-Sim uArch: core: 14, cta: 2 initialized @(8011,0)
GPGPU-Sim PTX: 5600000 instructions simulated : ctaid=(52,0,0) tid=(96,0,0)
GPGPU-Sim PTX: 5700000 instructions simulated : ctaid=(48,0,0) tid=(224,0,0)
GPGPU-Sim PTX: 5800000 instructions simulated : ctaid=(60,0,0) tid=(416,0,0)
GPGPU-Sim PTX: 5900000 instructions simulated : ctaid=(56,0,0) tid=(224,0,0)
GPGPU-Sim uArch: cycles simulated: 8500  inst.: 5742015 (ipc=675.5) sim_rate=229680 (inst/sec) elapsed = 0:0:00:25 / Tue Oct 31 01:23:00 2023
GPGPU-Sim PTX: 6000000 instructions simulated : ctaid=(46,0,0) tid=(96,0,0)
GPGPU-Sim PTX: 6100000 instructions simulated : ctaid=(65,0,0) tid=(192,0,0)
GPGPU-Sim PTX: 6200000 instructions simulated : ctaid=(55,0,0) tid=(32,0,0)
GPGPU-Sim PTX: 6300000 instructions simulated : ctaid=(85,0,0) tid=(480,0,0)
GPGPU-Sim PTX: 6400000 instructions simulated : ctaid=(81,0,0) tid=(256,0,0)
GPGPU-Sim uArch: cycles simulated: 9000  inst.: 6175103 (ipc=686.1) sim_rate=237503 (inst/sec) elapsed = 0:0:00:26 / Tue Oct 31 01:23:01 2023
GPGPU-Sim PTX: 6500000 instructions simulated : ctaid=(46,0,0) tid=(0,0,0)
GPGPU-Sim PTX: 6600000 instructions simulated : ctaid=(71,0,0) tid=(144,0,0)
GPGPU-Sim PTX: 6700000 instructions simulated : ctaid=(53,0,0) tid=(320,0,0)
GPGPU-Sim PTX: 6800000 instructions simulated : ctaid=(54,0,0) tid=(392,0,0)
GPGPU-Sim uArch: cycles simulated: 9500  inst.: 6601039 (ipc=694.8) sim_rate=235751 (inst/sec) elapsed = 0:0:00:28 / Tue Oct 31 01:23:03 2023
GPGPU-Sim PTX: 6900000 instructions simulated : ctaid=(65,0,0) tid=(496,0,0)
GPGPU-Sim PTX: 7000000 instructions simulated : ctaid=(67,0,0) tid=(480,0,0)
GPGPU-Sim PTX: 7100000 instructions simulated : ctaid=(88,0,0) tid=(160,0,0)
GPGPU-Sim PTX: 7200000 instructions simulated : ctaid=(53,0,0) tid=(392,0,0)
GPGPU-Sim uArch: cycles simulated: 10000  inst.: 7008039 (ipc=700.8) sim_rate=241656 (inst/sec) elapsed = 0:0:00:29 / Tue Oct 31 01:23:04 2023
GPGPU-Sim PTX: 7300000 instructions simulated : ctaid=(73,0,0) tid=(112,0,0)
GPGPU-Sim PTX: 7400000 instructions simulated : ctaid=(66,0,0) tid=(60,0,0)
GPGPU-Sim PTX: 7500000 instructions simulated : ctaid=(73,0,0) tid=(22,0,0)
GPGPU-Sim PTX: 7600000 instructions simulated : ctaid=(62,0,0) tid=(42,0,0)
GPGPU-Sim uArch: cycles simulated: 10500  inst.: 7420081 (ipc=706.7) sim_rate=239357 (inst/sec) elapsed = 0:0:00:31 / Tue Oct 31 01:23:06 2023
GPGPU-Sim PTX: 7700000 instructions simulated : ctaid=(68,0,0) tid=(95,0,0)
GPGPU-Sim PTX: 7800000 instructions simulated : ctaid=(71,0,0) tid=(225,0,0)
GPGPU-Sim PTX: 7900000 instructions simulated : ctaid=(51,0,0) tid=(172,0,0)
GPGPU-Sim PTX: 8000000 instructions simulated : ctaid=(85,0,0) tid=(363,0,0)
GPGPU-Sim uArch: cycles simulated: 11000  inst.: 7820177 (ipc=710.9) sim_rate=244380 (inst/sec) elapsed = 0:0:00:32 / Tue Oct 31 01:23:07 2023
GPGPU-Sim uArch: Shader 2 finished CTA #0 (11021,0), 2 CTAs running
GPGPU-Sim uArch: core:  2, cta: 0 initialized @(11022,0)
GPGPU-Sim PTX: 8100000 instructions simulated : ctaid=(85,0,0) tid=(199,0,0)
GPGPU-Sim uArch: Shader 11 finished CTA #0 (11055,0), 2 CTAs running
GPGPU-Sim uArch: core: 11, cta: 0 initialized @(11056,0)
GPGPU-Sim uArch: Shader 8 finished CTA #0 (11059,0), 2 CTAs running
GPGPU-Sim uArch: core:  8, cta: 0 initialized @(11060,0)
GPGPU-Sim uArch: Shader 4 finished CTA #0 (11123,0), 2 CTAs running
GPGPU-Sim uArch: core:  4, cta: 0 initialized @(11124,0)
GPGPU-Sim PTX: 8200000 instructions simulated : ctaid=(91,0,0) tid=(317,0,0)
GPGPU-Sim uArch: Shader 10 finished CTA #0 (11159,0), 2 CTAs running
GPGPU-Sim uArch: core: 10, cta: 0 initialized @(11160,0)
GPGPU-Sim uArch: Shader 13 finished CTA #0 (11175,0), 2 CTAs running
GPGPU-Sim uArch: core: 13, cta: 0 initialized @(11176,0)
GPGPU-Sim PTX: 8300000 instructions simulated : ctaid=(77,0,0) tid=(235,0,0)
GPGPU-Sim uArch: Shader 3 finished CTA #0 (11273,0), 2 CTAs running
GPGPU-Sim uArch: core:  3, cta: 0 initialized @(11274,0)
GPGPU-Sim uArch: Shader 0 finished CTA #0 (11296,0), 2 CTAs running
GPGPU-Sim uArch: core:  0, cta: 0 initialized @(11297,0)
GPGPU-Sim uArch: Shader 1 finished CTA #0 (11320,0), 2 CTAs running
GPGPU-Sim uArch: core:  1, cta: 0 initialized @(11321,0)
GPGPU-Sim uArch: Shader 14 finished CTA #0 (11335,0), 2 CTAs running
GPGPU-Sim uArch: core: 14, cta: 0 initialized @(11336,0)
GPGPU-Sim uArch: Shader 7 finished CTA #0 (11363,0), 2 CTAs running
GPGPU-Sim uArch: core:  7, cta: 0 initialized @(11364,0)
GPGPU-Sim PTX: 8400000 instructions simulated : ctaid=(94,0,0) tid=(99,0,0)
GPGPU-Sim uArch: Shader 9 finished CTA #0 (11411,0), 2 CTAs running
GPGPU-Sim uArch: core:  9, cta: 0 initialized @(11412,0)
GPGPU-Sim uArch: Shader 5 finished CTA #0 (11425,0), 2 CTAs running
GPGPU-Sim uArch: core:  5, cta: 0 initialized @(11426,0)
GPGPU-Sim uArch: cycles simulated: 11500  inst.: 8222987 (ipc=715.0) sim_rate=241852 (inst/sec) elapsed = 0:0:00:34 / Tue Oct 31 01:23:09 2023
GPGPU-Sim PTX: 8500000 instructions simulated : ctaid=(96,0,0) tid=(286,0,0)
GPGPU-Sim uArch: Shader 12 finished CTA #0 (11578,0), 2 CTAs running
GPGPU-Sim uArch: core: 12, cta: 0 initialized @(11579,0)
GPGPU-Sim uArch: Shader 6 finished CTA #0 (11599,0), 2 CTAs running
GPGPU-Sim uArch: core:  6, cta: 0 initialized @(11600,0)
GPGPU-Sim PTX: 8600000 instructions simulated : ctaid=(72,0,0) tid=(81,0,0)
GPGPU-Sim PTX: 8700000 instructions simulated : ctaid=(65,0,0) tid=(312,0,0)
GPGPU-Sim uArch: Shader 12 finished CTA #1 (11843,0), 2 CTAs running
GPGPU-Sim uArch: core: 12, cta: 1 initialized @(11844,0)
GPGPU-Sim PTX: 8800000 instructions simulated : ctaid=(78,0,0) tid=(154,0,0)
GPGPU-Sim uArch: Shader 1 finished CTA #1 (11933,0), 2 CTAs running
GPGPU-Sim uArch: core:  1, cta: 1 initialized @(11934,0)
GPGPU-Sim uArch: Shader 0 finished CTA #1 (11947,0), 2 CTAs running
GPGPU-Sim uArch: core:  0, cta: 1 initialized @(11948,0)
GPGPU-Sim uArch: Shader 6 finished CTA #1 (11977,0), 2 CTAs running
GPGPU-Sim uArch: core:  6, cta: 1 initialized @(11978,0)
GPGPU-Sim PTX: 8900000 instructions simulated : ctaid=(72,0,0) tid=(498,0,0)
GPGPU-Sim uArch: Shader 3 finished CTA #1 (11993,0), 2 CTAs running
GPGPU-Sim uArch: core:  3, cta: 1 initialized @(11994,0)
GPGPU-Sim uArch: cycles simulated: 12000  inst.: 8621969 (ipc=718.5) sim_rate=246341 (inst/sec) elapsed = 0:0:00:35 / Tue Oct 31 01:23:10 2023
GPGPU-Sim uArch: Shader 7 finished CTA #1 (12008,0), 2 CTAs running
GPGPU-Sim uArch: core:  7, cta: 1 initialized @(12009,0)
GPGPU-Sim uArch: Shader 9 finished CTA #1 (12018,0), 2 CTAs running
GPGPU-Sim uArch: core:  9, cta: 1 initialized @(12019,0)
GPGPU-Sim uArch: Shader 5 finished CTA #1 (12048,0), 2 CTAs running
GPGPU-Sim uArch: core:  5, cta: 1 initialized @(12049,0)
GPGPU-Sim PTX: 9000000 instructions simulated : ctaid=(79,0,0) tid=(62,0,0)
GPGPU-Sim uArch: Shader 14 finished CTA #1 (12107,0), 2 CTAs running
GPGPU-Sim uArch: core: 14, cta: 1 initialized @(12108,0)
GPGPU-Sim uArch: Shader 4 finished CTA #1 (12113,0), 2 CTAs running
GPGPU-Sim uArch: core:  4, cta: 1 initialized @(12114,0)
GPGPU-Sim uArch: Shader 13 finished CTA #1 (12161,0), 2 CTAs running
GPGPU-Sim uArch: core: 13, cta: 1 initialized @(12162,0)
GPGPU-Sim PTX: 9100000 instructions simulated : ctaid=(86,0,0) tid=(438,0,0)
GPGPU-Sim uArch: Shader 11 finished CTA #1 (12250,0), 2 CTAs running
GPGPU-Sim uArch: core: 11, cta: 1 initialized @(12251,0)
GPGPU-Sim uArch: Shader 8 finished CTA #1 (12259,0), 2 CTAs running
GPGPU-Sim uArch: core:  8, cta: 1 initialized @(12260,0)
GPGPU-Sim uArch: Shader 2 finished CTA #1 (12264,0), 2 CTAs running
GPGPU-Sim uArch: core:  2, cta: 1 initialized @(12265,0)
GPGPU-Sim PTX: 9200000 instructions simulated : ctaid=(80,0,0) tid=(70,0,0)
GPGPU-Sim uArch: Shader 10 finished CTA #1 (12352,0), 2 CTAs running
GPGPU-Sim uArch: core: 10, cta: 1 initialized @(12353,0)
GPGPU-Sim PTX: 9300000 instructions simulated : ctaid=(95,0,0) tid=(102,0,0)
GPGPU-Sim uArch: cycles simulated: 12500  inst.: 9035225 (ipc=722.8) sim_rate=244195 (inst/sec) elapsed = 0:0:00:37 / Tue Oct 31 01:23:12 2023
GPGPU-Sim PTX: 9400000 instructions simulated : ctaid=(119,0,0) tid=(158,0,0)
GPGPU-Sim PTX: 9500000 instructions simulated : ctaid=(94,0,0) tid=(254,0,0)
GPGPU-Sim PTX: 9600000 instructions simulated : ctaid=(79,0,0) tid=(254,0,0)
GPGPU-Sim PTX: 9700000 instructions simulated : ctaid=(88,0,0) tid=(6,0,0)
GPGPU-Sim uArch: cycles simulated: 13000  inst.: 9454645 (ipc=727.3) sim_rate=242426 (inst/sec) elapsed = 0:0:00:39 / Tue Oct 31 01:23:14 2023
GPGPU-Sim PTX: 9800000 instructions simulated : ctaid=(81,0,0) tid=(402,0,0)
GPGPU-Sim PTX: 9900000 instructions simulated : ctaid=(78,0,0) tid=(166,0,0)
GPGPU-Sim PTX: 10000000 instructions simulated : ctaid=(78,0,0) tid=(274,0,0)
GPGPU-Sim PTX: 10100000 instructions simulated : ctaid=(93,0,0) tid=(190,0,0)
GPGPU-Sim uArch: cycles simulated: 13500  inst.: 9869315 (ipc=731.1) sim_rate=246732 (inst/sec) elapsed = 0:0:00:40 / Tue Oct 31 01:23:15 2023
GPGPU-Sim PTX: 10200000 instructions simulated : ctaid=(78,0,0) tid=(236,0,0)
GPGPU-Sim PTX: 10300000 instructions simulated : ctaid=(91,0,0) tid=(67,0,0)
GPGPU-Sim PTX: 10400000 instructions simulated : ctaid=(102,0,0) tid=(90,0,0)
GPGPU-Sim PTX: 10500000 instructions simulated : ctaid=(84,0,0) tid=(74,0,0)
GPGPU-Sim uArch: Shader 12 finished CTA #2 (13962,0), 2 CTAs running
GPGPU-Sim uArch: core: 12, cta: 2 initialized @(13963,0)
GPGPU-Sim uArch: Shader 2 finished CTA #2 (13973,0), 2 CTAs running
GPGPU-Sim uArch: core:  2, cta: 2 initialized @(13974,0)
GPGPU-Sim PTX: 10600000 instructions simulated : ctaid=(97,0,0) tid=(130,0,0)
GPGPU-Sim uArch: Shader 8 finished CTA #2 (13977,0), 2 CTAs running
GPGPU-Sim uArch: core:  8, cta: 2 initialized @(13978,0)
GPGPU-Sim uArch: cycles simulated: 14000  inst.: 10274307 (ipc=733.9) sim_rate=244626 (inst/sec) elapsed = 0:0:00:42 / Tue Oct 31 01:23:17 2023
GPGPU-Sim uArch: Shader 14 finished CTA #2 (14014,0), 2 CTAs running
GPGPU-Sim uArch: core: 14, cta: 2 initialized @(14015,0)
GPGPU-Sim uArch: Shader 1 finished CTA #2 (14041,0), 2 CTAs running
GPGPU-Sim uArch: core:  1, cta: 2 initialized @(14042,0)
GPGPU-Sim uArch: Shader 5 finished CTA #2 (14042,0), 2 CTAs running
GPGPU-Sim uArch: core:  5, cta: 2 initialized @(14043,0)
GPGPU-Sim uArch: Shader 10 finished CTA #2 (14088,0), 2 CTAs running
GPGPU-Sim uArch: core: 10, cta: 2 initialized @(14089,0)
GPGPU-Sim PTX: 10700000 instructions simulated : ctaid=(93,0,0) tid=(264,0,0)
GPGPU-Sim uArch: Shader 0 finished CTA #2 (14096,0), 2 CTAs running
GPGPU-Sim uArch: core:  0, cta: 2 initialized @(14097,0)
GPGPU-Sim uArch: Shader 4 finished CTA #2 (14161,0), 2 CTAs running
GPGPU-Sim uArch: core:  4, cta: 2 initialized @(14162,0)
GPGPU-Sim uArch: Shader 6 finished CTA #2 (14176,0), 2 CTAs running
GPGPU-Sim uArch: core:  6, cta: 2 initialized @(14177,0)
GPGPU-Sim uArch: Shader 9 finished CTA #2 (14179,0), 2 CTAs running
GPGPU-Sim uArch: core:  9, cta: 2 initialized @(14180,0)
GPGPU-Sim uArch: Shader 13 finished CTA #2 (14198,0), 2 CTAs running
GPGPU-Sim uArch: core: 13, cta: 2 initialized @(14199,0)
GPGPU-Sim PTX: 10800000 instructions simulated : ctaid=(116,0,0) tid=(420,0,0)
GPGPU-Sim uArch: Shader 7 finished CTA #2 (14233,0), 2 CTAs running
GPGPU-Sim uArch: core:  7, cta: 2 initialized @(14234,0)
GPGPU-Sim uArch: Shader 3 finished CTA #2 (14264,0), 2 CTAs running
GPGPU-Sim uArch: core:  3, cta: 2 initialized @(14265,0)
GPGPU-Sim PTX: 10900000 instructions simulated : ctaid=(100,0,0) tid=(1,0,0)
GPGPU-Sim uArch: Shader 11 finished CTA #2 (14411,0), 2 CTAs running
GPGPU-Sim uArch: core: 11, cta: 2 initialized @(14412,0)
GPGPU-Sim PTX: 11000000 instructions simulated : ctaid=(100,0,0) tid=(289,0,0)
GPGPU-Sim uArch: cycles simulated: 14500  inst.: 10689038 (ipc=737.2) sim_rate=242932 (inst/sec) elapsed = 0:0:00:44 / Tue Oct 31 01:23:19 2023
GPGPU-Sim PTX: 11100000 instructions simulated : ctaid=(106,0,0) tid=(97,0,0)
GPGPU-Sim PTX: 11200000 instructions simulated : ctaid=(115,0,0) tid=(241,0,0)
GPGPU-Sim PTX: 11300000 instructions simulated : ctaid=(119,0,0) tid=(49,0,0)
GPGPU-Sim PTX: 11400000 instructions simulated : ctaid=(94,0,0) tid=(441,0,0)
GPGPU-Sim uArch: cycles simulated: 15000  inst.: 11115854 (ipc=741.1) sim_rate=247018 (inst/sec) elapsed = 0:0:00:45 / Tue Oct 31 01:23:20 2023
GPGPU-Sim PTX: 11500000 instructions simulated : ctaid=(92,0,0) tid=(33,0,0)
GPGPU-Sim PTX: 11600000 instructions simulated : ctaid=(101,0,0) tid=(473,0,0)
GPGPU-Sim PTX: 11700000 instructions simulated : ctaid=(94,0,0) tid=(173,0,0)
GPGPU-Sim PTX: 11800000 instructions simulated : ctaid=(111,0,0) tid=(57,0,0)
GPGPU-Sim PTX: 11900000 instructions simulated : ctaid=(106,0,0) tid=(183,0,0)
GPGPU-Sim uArch: cycles simulated: 15500  inst.: 11536534 (ipc=744.3) sim_rate=245458 (inst/sec) elapsed = 0:0:00:47 / Tue Oct 31 01:23:22 2023
GPGPU-Sim PTX: 12000000 instructions simulated : ctaid=(112,0,0) tid=(249,0,0)
GPGPU-Sim PTX: 12100000 instructions simulated : ctaid=(106,0,0) tid=(257,0,0)
GPGPU-Sim PTX: 12200000 instructions simulated : ctaid=(92,0,0) tid=(316,0,0)
GPGPU-Sim PTX: 12300000 instructions simulated : ctaid=(111,0,0) tid=(451,0,0)
GPGPU-Sim uArch: cycles simulated: 16000  inst.: 11953071 (ipc=747.1) sim_rate=249022 (inst/sec) elapsed = 0:0:00:48 / Tue Oct 31 01:23:23 2023
GPGPU-Sim PTX: 12400000 instructions simulated : ctaid=(127,0,0) tid=(276,0,0)
GPGPU-Sim PTX: 12500000 instructions simulated : ctaid=(115,0,0) tid=(294,0,0)
GPGPU-Sim uArch: Shader 2 finished CTA #0 (16276,0), 2 CTAs running
GPGPU-Sim uArch: core:  2, cta: 0 initialized @(16277,0)
GPGPU-Sim uArch: Shader 3 finished CTA #0 (16277,0), 2 CTAs running
GPGPU-Sim uArch: core:  3, cta: 0 initialized @(16278,0)
GPGPU-Sim PTX: 12600000 instructions simulated : ctaid=(108,0,0) tid=(10,0,0)
GPGPU-Sim uArch: Shader 11 finished CTA #0 (16372,0), 2 CTAs running
GPGPU-Sim uArch: core: 11, cta: 0 initialized @(16373,0)
GPGPU-Sim uArch: Shader 10 finished CTA #0 (16418,0), 2 CTAs running
GPGPU-Sim uArch: core: 10, cta: 0 initialized @(16419,0)
GPGPU-Sim uArch: Shader 4 finished CTA #0 (16439,0), 2 CTAs running
GPGPU-Sim uArch: core:  4, cta: 0 initialized @(16440,0)
GPGPU-Sim PTX: 12700000 instructions simulated : ctaid=(107,0,0) tid=(386,0,0)
GPGPU-Sim uArch: Shader 7 finished CTA #0 (16450,0), 2 CTAs running
GPGPU-Sim uArch: core:  7, cta: 0 initialized @(16451,0)
GPGPU-Sim uArch: Shader 8 finished CTA #0 (16475,0), 2 CTAs running
GPGPU-Sim uArch: core:  8, cta: 0 initialized @(16476,0)
GPGPU-Sim uArch: Shader 0 finished CTA #0 (16495,0), 2 CTAs running
GPGPU-Sim uArch: core:  0, cta: 0 initialized @(16496,0)
GPGPU-Sim uArch: Shader 13 finished CTA #0 (16498,0), 2 CTAs running
GPGPU-Sim uArch: core: 13, cta: 0 initialized @(16499,0)
GPGPU-Sim uArch: cycles simulated: 16500  inst.: 12343130 (ipc=748.1) sim_rate=246862 (inst/sec) elapsed = 0:0:00:50 / Tue Oct 31 01:23:25 2023
GPGPU-Sim uArch: Shader 1 finished CTA #0 (16550,0), 2 CTAs running
GPGPU-Sim uArch: core:  1, cta: 0 initialized @(16551,0)
GPGPU-Sim PTX: 12800000 instructions simulated : ctaid=(111,0,0) tid=(311,0,0)
GPGPU-Sim uArch: Shader 9 finished CTA #0 (16570,0), 2 CTAs running
GPGPU-Sim uArch: core:  9, cta: 0 initialized @(16571,0)
GPGPU-Sim uArch: Shader 14 finished CTA #0 (16581,0), 2 CTAs running
GPGPU-Sim uArch: core: 14, cta: 0 initialized @(16582,0)
GPGPU-Sim uArch: Shader 6 finished CTA #0 (16609,0), 2 CTAs running
GPGPU-Sim uArch: core:  6, cta: 0 initialized @(16610,0)
GPGPU-Sim PTX: 12900000 instructions simulated : ctaid=(138,0,0) tid=(384,0,0)
GPGPU-Sim uArch: Shader 12 finished CTA #0 (16724,0), 2 CTAs running
GPGPU-Sim uArch: core: 12, cta: 0 initialized @(16725,0)
GPGPU-Sim PTX: 13000000 instructions simulated : ctaid=(114,0,0) tid=(200,0,0)
GPGPU-Sim uArch: Shader 5 finished CTA #0 (16830,0), 2 CTAs running
GPGPU-Sim uArch: core:  5, cta: 0 initialized @(16831,0)
GPGPU-Sim PTX: 13100000 instructions simulated : ctaid=(121,0,0) tid=(122,0,0)
GPGPU-Sim uArch: cycles simulated: 17000  inst.: 12755967 (ipc=750.4) sim_rate=245307 (inst/sec) elapsed = 0:0:00:52 / Tue Oct 31 01:23:27 2023
GPGPU-Sim PTX: 13200000 instructions simulated : ctaid=(117,0,0) tid=(452,0,0)
GPGPU-Sim PTX: 13300000 instructions simulated : ctaid=(117,0,0) tid=(322,0,0)
GPGPU-Sim PTX: 13400000 instructions simulated : ctaid=(110,0,0) tid=(462,0,0)
GPGPU-Sim PTX: 13500000 instructions simulated : ctaid=(131,0,0) tid=(410,0,0)
GPGPU-Sim PTX: 13600000 instructions simulated : ctaid=(129,0,0) tid=(272,0,0)
GPGPU-Sim uArch: cycles simulated: 17500  inst.: 13174680 (ipc=752.8) sim_rate=248578 (inst/sec) elapsed = 0:0:00:53 / Tue Oct 31 01:23:28 2023
GPGPU-Sim PTX: 13700000 instructions simulated : ctaid=(122,0,0) tid=(417,0,0)
GPGPU-Sim uArch: Shader 4 finished CTA #1 (17692,0), 2 CTAs running
GPGPU-Sim uArch: core:  4, cta: 1 initialized @(17693,0)
GPGPU-Sim uArch: Shader 5 finished CTA #1 (17700,0), 2 CTAs running
GPGPU-Sim uArch: core:  5, cta: 1 initialized @(17701,0)
GPGPU-Sim uArch: Shader 1 finished CTA #1 (17723,0), 2 CTAs running
GPGPU-Sim uArch: core:  1, cta: 1 initialized @(17724,0)
GPGPU-Sim uArch: Shader 3 finished CTA #1 (17741,0), 2 CTAs running
GPGPU-Sim uArch: Shader 12 finished CTA #1 (17741,0), 2 CTAs running
GPGPU-Sim uArch: core:  3, cta: 1 initialized @(17742,0)
GPGPU-Sim uArch: core: 12, cta: 1 initialized @(17742,0)
GPGPU-Sim uArch: Shader 8 finished CTA #1 (17750,0), 2 CTAs running
GPGPU-Sim uArch: core:  8, cta: 1 initialized @(17751,0)
GPGPU-Sim PTX: 13800000 instructions simulated : ctaid=(123,0,0) tid=(256,0,0)
GPGPU-Sim uArch: Shader 13 finished CTA #1 (17762,0), 2 CTAs running
GPGPU-Sim uArch: core: 13, cta: 1 initialized @(17763,0)
GPGPU-Sim uArch: Shader 0 finished CTA #1 (17771,0), 2 CTAs running
GPGPU-Sim uArch: core:  0, cta: 1 initialized @(17772,0)
GPGPU-Sim uArch: Shader 7 finished CTA #1 (17774,0), 2 CTAs running
GPGPU-Sim uArch: core:  7, cta: 1 initialized @(17775,0)
GPGPU-Sim uArch: Shader 9 finished CTA #1 (17818,0), 2 CTAs running
GPGPU-Sim uArch: core:  9, cta: 1 initialized @(17819,0)
GPGPU-Sim uArch: Shader 14 finished CTA #1 (17825,0), 2 CTAs running
GPGPU-Sim uArch: core: 14, cta: 1 initialized @(17826,0)
GPGPU-Sim uArch: Shader 2 finished CTA #1 (17862,0), 2 CTAs running
GPGPU-Sim uArch: core:  2, cta: 1 initialized @(17863,0)
GPGPU-Sim PTX: 13900000 instructions simulated : ctaid=(160,0,0) tid=(297,0,0)
GPGPU-Sim uArch: Shader 6 finished CTA #1 (17910,0), 2 CTAs running
GPGPU-Sim uArch: core:  6, cta: 1 initialized @(17911,0)
GPGPU-Sim uArch: Shader 11 finished CTA #1 (17928,0), 2 CTAs running
GPGPU-Sim uArch: core: 11, cta: 1 initialized @(17929,0)
GPGPU-Sim PTX: 14000000 instructions simulated : ctaid=(135,0,0) tid=(119,0,0)
GPGPU-Sim uArch: cycles simulated: 18000  inst.: 13564248 (ipc=753.6) sim_rate=246622 (inst/sec) elapsed = 0:0:00:55 / Tue Oct 31 01:23:30 2023
GPGPU-Sim uArch: Shader 10 finished CTA #1 (18076,0), 2 CTAs running
GPGPU-Sim uArch: core: 10, cta: 1 initialized @(18077,0)
GPGPU-Sim PTX: 14100000 instructions simulated : ctaid=(149,0,0) tid=(23,0,0)
GPGPU-Sim PTX: 14200000 instructions simulated : ctaid=(140,0,0) tid=(279,0,0)
GPGPU-Sim PTX: 14300000 instructions simulated : ctaid=(164,0,0) tid=(295,0,0)
GPGPU-Sim PTX: 14400000 instructions simulated : ctaid=(129,0,0) tid=(23,0,0)
GPGPU-Sim uArch: cycles simulated: 18500  inst.: 13985280 (ipc=756.0) sim_rate=245355 (inst/sec) elapsed = 0:0:00:57 / Tue Oct 31 01:23:32 2023
GPGPU-Sim PTX: 14500000 instructions simulated : ctaid=(123,0,0) tid=(327,0,0)
GPGPU-Sim PTX: 14600000 instructions simulated : ctaid=(128,0,0) tid=(27,0,0)
GPGPU-Sim PTX: 14700000 instructions simulated : ctaid=(125,0,0) tid=(75,0,0)
GPGPU-Sim PTX: 14800000 instructions simulated : ctaid=(143,0,0) tid=(23,0,0)
GPGPU-Sim uArch: cycles simulated: 19000  inst.: 14411710 (ipc=758.5) sim_rate=248477 (inst/sec) elapsed = 0:0:00:58 / Tue Oct 31 01:23:33 2023
GPGPU-Sim PTX: 14900000 instructions simulated : ctaid=(132,0,0) tid=(465,0,0)
GPGPU-Sim PTX: 15000000 instructions simulated : ctaid=(127,0,0) tid=(282,0,0)
GPGPU-Sim PTX: 15100000 instructions simulated : ctaid=(141,0,0) tid=(73,0,0)
GPGPU-Sim PTX: 15200000 instructions simulated : ctaid=(153,0,0) tid=(71,0,0)
GPGPU-Sim uArch: cycles simulated: 19500  inst.: 14816449 (ipc=759.8) sim_rate=246940 (inst/sec) elapsed = 0:0:01:00 / Tue Oct 31 01:23:35 2023
GPGPU-Sim PTX: 15300000 instructions simulated : ctaid=(149,0,0) tid=(282,0,0)
GPGPU-Sim uArch: Shader 1 finished CTA #2 (19542,0), 2 CTAs running
GPGPU-Sim uArch: core:  1, cta: 2 initialized @(19543,0)
GPGPU-Sim uArch: Shader 0 finished CTA #2 (19613,0), 2 CTAs running
GPGPU-Sim uArch: core:  0, cta: 2 initialized @(19614,0)
GPGPU-Sim uArch: Shader 5 finished CTA #2 (19629,0), 2 CTAs running
GPGPU-Sim uArch: core:  5, cta: 2 initialized @(19630,0)
GPGPU-Sim PTX: 15400000 instructions simulated : ctaid=(129,0,0) tid=(343,0,0)
GPGPU-Sim uArch: Shader 14 finished CTA #2 (19643,0), 2 CTAs running
GPGPU-Sim uArch: core: 14, cta: 2 initialized @(19644,0)
GPGPU-Sim uArch: Shader 12 finished CTA #2 (19645,0), 2 CTAs running
GPGPU-Sim uArch: core: 12, cta: 2 initialized @(19646,0)
GPGPU-Sim uArch: Shader 10 finished CTA #2 (19646,0), 2 CTAs running
GPGPU-Sim uArch: core: 10, cta: 2 initialized @(19647,0)
GPGPU-Sim uArch: Shader 8 finished CTA #2 (19716,0), 2 CTAs running
GPGPU-Sim uArch: core:  8, cta: 2 initialized @(19717,0)
GPGPU-Sim PTX: 15500000 instructions simulated : ctaid=(151,0,0) tid=(389,0,0)
GPGPU-Sim uArch: Shader 11 finished CTA #2 (19785,0), 2 CTAs running
GPGPU-Sim uArch: core: 11, cta: 2 initialized @(19786,0)
GPGPU-Sim uArch: Shader 2 finished CTA #2 (19801,0), 2 CTAs running
GPGPU-Sim uArch: core:  2, cta: 2 initialized @(19802,0)
GPGPU-Sim uArch: Shader 4 finished CTA #2 (19828,0), 2 CTAs running
GPGPU-Sim uArch: core:  4, cta: 2 initialized @(19829,0)
GPGPU-Sim PTX: 15600000 instructions simulated : ctaid=(144,0,0) tid=(450,0,0)
GPGPU-Sim uArch: Shader 9 finished CTA #2 (19879,0), 2 CTAs running
GPGPU-Sim uArch: core:  9, cta: 2 initialized @(19880,0)
GPGPU-Sim uArch: Shader 13 finished CTA #2 (19890,0), 2 CTAs running
GPGPU-Sim uArch: core: 13, cta: 2 initialized @(19891,0)
GPGPU-Sim uArch: Shader 3 finished CTA #2 (19891,0), 2 CTAs running
GPGPU-Sim uArch: core:  3, cta: 2 initialized @(19892,0)
GPGPU-Sim uArch: Shader 6 finished CTA #2 (19909,0), 2 CTAs running
GPGPU-Sim uArch: core:  6, cta: 2 initialized @(19910,0)
GPGPU-Sim uArch: Shader 7 finished CTA #2 (19928,0), 2 CTAs running
GPGPU-Sim uArch: core:  7, cta: 2 initialized @(19929,0)
GPGPU-Sim PTX: 15700000 instructions simulated : ctaid=(169,0,0) tid=(18,0,0)
GPGPU-Sim uArch: cycles simulated: 20000  inst.: 15223629 (ipc=761.2) sim_rate=245542 (inst/sec) elapsed = 0:0:01:02 / Tue Oct 31 01:23:37 2023
GPGPU-Sim PTX: 15800000 instructions simulated : ctaid=(155,0,0) tid=(386,0,0)
GPGPU-Sim PTX: 15900000 instructions simulated : ctaid=(137,0,0) tid=(290,0,0)
GPGPU-Sim PTX: 16000000 instructions simulated : ctaid=(143,0,0) tid=(314,0,0)
GPGPU-Sim PTX: 16100000 instructions simulated : ctaid=(161,0,0) tid=(242,0,0)
GPGPU-Sim uArch: cycles simulated: 20500  inst.: 15641877 (ipc=763.0) sim_rate=248283 (inst/sec) elapsed = 0:0:01:03 / Tue Oct 31 01:23:38 2023
GPGPU-Sim PTX: 16200000 instructions simulated : ctaid=(156,0,0) tid=(482,0,0)
GPGPU-Sim PTX: 16300000 instructions simulated : ctaid=(175,0,0) tid=(50,0,0)
GPGPU-Sim PTX: 16400000 instructions simulated : ctaid=(175,0,0) tid=(142,0,0)
GPGPU-Sim PTX: 16500000 instructions simulated : ctaid=(147,0,0) tid=(50,0,0)
GPGPU-Sim uArch: cycles simulated: 21000  inst.: 16067745 (ipc=765.1) sim_rate=247196 (inst/sec) elapsed = 0:0:01:05 / Tue Oct 31 01:23:40 2023
GPGPU-Sim PTX: 16600000 instructions simulated : ctaid=(143,0,0) tid=(6,0,0)
GPGPU-Sim PTX: 16700000 instructions simulated : ctaid=(151,0,0) tid=(150,0,0)
GPGPU-Sim PTX: 16800000 instructions simulated : ctaid=(135,0,0) tid=(114,0,0)
GPGPU-Sim PTX: 16900000 instructions simulated : ctaid=(155,0,0) tid=(315,0,0)
GPGPU-Sim uArch: cycles simulated: 21500  inst.: 16475126 (ipc=766.3) sim_rate=249623 (inst/sec) elapsed = 0:0:01:06 / Tue Oct 31 01:23:41 2023
GPGPU-Sim PTX: 17000000 instructions simulated : ctaid=(141,0,0) tid=(402,0,0)
GPGPU-Sim PTX: 17100000 instructions simulated : ctaid=(147,0,0) tid=(234,0,0)
GPGPU-Sim PTX: 17200000 instructions simulated : ctaid=(173,0,0) tid=(355,0,0)
GPGPU-Sim uArch: Shader 4 finished CTA #0 (21765,0), 2 CTAs running
GPGPU-Sim uArch: core:  4, cta: 0 initialized @(21766,0)
GPGPU-Sim uArch: Shader 11 finished CTA #0 (21791,0), 2 CTAs running
GPGPU-Sim uArch: core: 11, cta: 0 initialized @(21792,0)
GPGPU-Sim uArch: Shader 3 finished CTA #0 (21805,0), 2 CTAs running
GPGPU-Sim uArch: core:  3, cta: 0 initialized @(21806,0)
GPGPU-Sim uArch: Shader 2 finished CTA #0 (21825,0), 2 CTAs running
GPGPU-Sim uArch: core:  2, cta: 0 initialized @(21826,0)
GPGPU-Sim uArch: Shader 12 finished CTA #0 (21837,0), 2 CTAs running
GPGPU-Sim uArch: core: 12, cta: 0 initialized @(21838,0)
GPGPU-Sim uArch: Shader 8 finished CTA #0 (21848,0), 2 CTAs running
GPGPU-Sim uArch: core:  8, cta: 0 initialized @(21849,0)
GPGPU-Sim uArch: Shader 1 finished CTA #0 (21851,0), 2 CTAs running
GPGPU-Sim uArch: core:  1, cta: 0 initialized @(21852,0)
GPGPU-Sim uArch: Shader 7 finished CTA #0 (21852,0), 2 CTAs running
GPGPU-Sim uArch: core:  7, cta: 0 initialized @(21853,0)
GPGPU-Sim uArch: Shader 13 finished CTA #0 (21853,0), 2 CTAs running
GPGPU-Sim uArch: core: 13, cta: 0 initialized @(21854,0)
GPGPU-Sim PTX: 17300000 instructions simulated : ctaid=(170,0,0) tid=(501,0,0)
GPGPU-Sim uArch: Shader 0 finished CTA #0 (21869,0), 2 CTAs running
GPGPU-Sim uArch: core:  0, cta: 0 initialized @(21870,0)
GPGPU-Sim uArch: Shader 14 finished CTA #0 (21939,0), 2 CTAs running
GPGPU-Sim uArch: core: 14, cta: 0 initialized @(21940,0)
GPGPU-Sim uArch: Shader 10 finished CTA #0 (21965,0), 2 CTAs running
GPGPU-Sim uArch: core: 10, cta: 0 initialized @(21966,0)
GPGPU-Sim uArch: Shader 6 finished CTA #0 (21966,0), 2 CTAs running
GPGPU-Sim uArch: core:  6, cta: 0 initialized @(21967,0)
GPGPU-Sim PTX: 17400000 instructions simulated : ctaid=(158,0,0) tid=(421,0,0)
GPGPU-Sim uArch: cycles simulated: 22000  inst.: 16872474 (ipc=766.9) sim_rate=248124 (inst/sec) elapsed = 0:0:01:08 / Tue Oct 31 01:23:43 2023
GPGPU-Sim uArch: Shader 9 finished CTA #0 (22088,0), 2 CTAs running
GPGPU-Sim uArch: core:  9, cta: 0 initialized @(22089,0)
GPGPU-Sim uArch: Shader 5 finished CTA #0 (22093,0), 2 CTAs running
GPGPU-Sim uArch: core:  5, cta: 0 initialized @(22094,0)
GPGPU-Sim PTX: 17500000 instructions simulated : ctaid=(162,0,0) tid=(157,0,0)
GPGPU-Sim PTX: 17600000 instructions simulated : ctaid=(165,0,0) tid=(5,0,0)
GPGPU-Sim PTX: 17700000 instructions simulated : ctaid=(157,0,0) tid=(5,0,0)
GPGPU-Sim PTX: 17800000 instructions simulated : ctaid=(163,0,0) tid=(165,0,0)
GPGPU-Sim uArch: cycles simulated: 22500  inst.: 17282990 (ipc=768.1) sim_rate=246899 (inst/sec) elapsed = 0:0:01:10 / Tue Oct 31 01:23:45 2023
GPGPU-Sim PTX: 17900000 instructions simulated : ctaid=(169,0,0) tid=(275,0,0)
GPGPU-Sim PTX: 18000000 instructions simulated : ctaid=(169,0,0) tid=(29,0,0)
GPGPU-Sim PTX: 18100000 instructions simulated : ctaid=(166,0,0) tid=(207,0,0)
GPGPU-Sim PTX: 18200000 instructions simulated : ctaid=(157,0,0) tid=(369,0,0)
GPGPU-Sim uArch: cycles simulated: 23000  inst.: 17709698 (ipc=770.0) sim_rate=249432 (inst/sec) elapsed = 0:0:01:11 / Tue Oct 31 01:23:46 2023
GPGPU-Sim PTX: 18300000 instructions simulated : ctaid=(171,0,0) tid=(18,0,0)
GPGPU-Sim PTX: 18400000 instructions simulated : ctaid=(165,0,0) tid=(3,0,0)
GPGPU-Sim PTX: 18500000 instructions simulated : ctaid=(179,0,0) tid=(2,0,0)
GPGPU-Sim uArch: Shader 5 finished CTA #1 (23360,0), 2 CTAs running
GPGPU-Sim uArch: core:  5, cta: 1 initialized @(23361,0)
GPGPU-Sim uArch: Shader 1 finished CTA #1 (23373,0), 2 CTAs running
GPGPU-Sim uArch: Shader 9 finished CTA #1 (23373,0), 2 CTAs running
GPGPU-Sim uArch: core:  9, cta: 1 initialized @(23374,0)
GPGPU-Sim uArch: core:  1, cta: 1 initialized @(23374,0)
GPGPU-Sim uArch: Shader 4 finished CTA #1 (23388,0), 2 CTAs running
GPGPU-Sim uArch: core:  4, cta: 1 initialized @(23389,0)
GPGPU-Sim PTX: 18600000 instructions simulated : ctaid=(190,0,0) tid=(114,0,0)
GPGPU-Sim uArch: Shader 3 finished CTA #1 (23434,0), 2 CTAs running
GPGPU-Sim uArch: core:  3, cta: 1 initialized @(23435,0)
GPGPU-Sim uArch: Shader 8 finished CTA #1 (23447,0), 2 CTAs running
GPGPU-Sim uArch: core:  8, cta: 1 initialized @(23448,0)
GPGPU-Sim uArch: Shader 7 finished CTA #1 (23460,0), 2 CTAs running
GPGPU-Sim uArch: core:  7, cta: 1 initialized @(23461,0)
GPGPU-Sim uArch: Shader 13 finished CTA #1 (23488,0), 2 CTAs running
GPGPU-Sim uArch: core: 13, cta: 1 initialized @(23489,0)
GPGPU-Sim uArch: cycles simulated: 23500  inst.: 18096503 (ipc=770.1) sim_rate=247897 (inst/sec) elapsed = 0:0:01:13 / Tue Oct 31 01:23:48 2023
GPGPU-Sim uArch: Shader 12 finished CTA #1 (23513,0), 2 CTAs running
GPGPU-Sim uArch: core: 12, cta: 1 initialized @(23514,0)
GPGPU-Sim uArch: Shader 2 finished CTA #1 (23521,0), 2 CTAs running
GPGPU-Sim uArch: core:  2, cta: 1 initialized @(23522,0)
GPGPU-Sim PTX: 18700000 instructions simulated : ctaid=(192,0,0) tid=(312,0,0)
GPGPU-Sim uArch: Shader 10 finished CTA #1 (23563,0), 2 CTAs running
GPGPU-Sim uArch: core: 10, cta: 1 initialized @(23564,0)
GPGPU-Sim uArch: Shader 14 finished CTA #1 (23611,0), 2 CTAs running
GPGPU-Sim uArch: core: 14, cta: 1 initialized @(23612,0)
GPGPU-Sim uArch: Shader 11 finished CTA #1 (23623,0), 2 CTAs running
GPGPU-Sim uArch: core: 11, cta: 1 initialized @(23624,0)
GPGPU-Sim uArch: Shader 6 finished CTA #1 (23629,0), 2 CTAs running
GPGPU-Sim uArch: core:  6, cta: 1 initialized @(23630,0)
GPGPU-Sim PTX: 18800000 instructions simulated : ctaid=(189,0,0) tid=(24,0,0)
GPGPU-Sim uArch: Shader 0 finished CTA #1 (23653,0), 2 CTAs running
GPGPU-Sim uArch: core:  0, cta: 1 initialized @(23654,0)
GPGPU-Sim PTX: 18900000 instructions simulated : ctaid=(182,0,0) tid=(192,0,0)
GPGPU-Sim PTX: 19000000 instructions simulated : ctaid=(202,0,0) tid=(216,0,0)
GPGPU-Sim PTX: 19100000 instructions simulated : ctaid=(190,0,0) tid=(80,0,0)
GPGPU-Sim uArch: cycles simulated: 24000  inst.: 18512423 (ipc=771.4) sim_rate=246832 (inst/sec) elapsed = 0:0:01:15 / Tue Oct 31 01:23:50 2023
GPGPU-Sim PTX: 19200000 instructions simulated : ctaid=(167,0,0) tid=(304,0,0)
GPGPU-Sim PTX: 19300000 instructions simulated : ctaid=(171,0,0) tid=(316,0,0)
GPGPU-Sim PTX: 19400000 instructions simulated : ctaid=(176,0,0) tid=(108,0,0)
GPGPU-Sim PTX: 19500000 instructions simulated : ctaid=(168,0,0) tid=(416,0,0)
GPGPU-Sim uArch: cycles simulated: 24500  inst.: 18939561 (ipc=773.0) sim_rate=245968 (inst/sec) elapsed = 0:0:01:17 / Tue Oct 31 01:23:52 2023
GPGPU-Sim PTX: 19600000 instructions simulated : ctaid=(170,0,0) tid=(172,0,0)
GPGPU-Sim PTX: 19700000 instructions simulated : ctaid=(173,0,0) tid=(184,0,0)
GPGPU-Sim PTX: 19800000 instructions simulated : ctaid=(195,0,0) tid=(453,0,0)
GPGPU-Sim PTX: 19900000 instructions simulated : ctaid=(185,0,0) tid=(440,0,0)
GPGPU-Sim uArch: cycles simulated: 25000  inst.: 19352031 (ipc=774.1) sim_rate=248102 (inst/sec) elapsed = 0:0:01:18 / Tue Oct 31 01:23:53 2023
GPGPU-Sim PTX: 20000000 instructions simulated : ctaid=(174,0,0) tid=(421,0,0)
GPGPU-Sim uArch: Shader 5 finished CTA #2 (25172,0), 2 CTAs running
GPGPU-Sim uArch: core:  5, cta: 2 initialized @(25173,0)
GPGPU-Sim PTX: 20100000 instructions simulated : ctaid=(193,0,0) tid=(257,0,0)
GPGPU-Sim uArch: Shader 0 finished CTA #2 (25211,0), 2 CTAs running
GPGPU-Sim uArch: core:  0, cta: 2 initialized @(25212,0)
GPGPU-Sim uArch: Shader 11 finished CTA #2 (25253,0), 2 CTAs running
GPGPU-Sim uArch: core: 11, cta: 2 initialized @(25254,0)
GPGPU-Sim uArch: Shader 2 finished CTA #2 (25259,0), 2 CTAs running
GPGPU-Sim uArch: core:  2, cta: 2 initialized @(25260,0)
GPGPU-Sim uArch: Shader 1 finished CTA #2 (25265,0), 2 CTAs running
GPGPU-Sim uArch: core:  1, cta: 2 initialized @(25266,0)
GPGPU-Sim uArch: Shader 3 finished CTA #2 (25271,0), 2 CTAs running
GPGPU-Sim uArch: core:  3, cta: 2 initialized @(25272,0)
GPGPU-Sim uArch: Shader 8 finished CTA #2 (25278,0), 2 CTAs running
GPGPU-Sim uArch: core:  8, cta: 2 initialized @(25279,0)
GPGPU-Sim PTX: 20200000 instructions simulated : ctaid=(180,0,0) tid=(491,0,0)
GPGPU-Sim uArch: Shader 4 finished CTA #2 (25296,0), 2 CTAs running
GPGPU-Sim uArch: core:  4, cta: 2 initialized @(25297,0)
GPGPU-Sim uArch: Shader 7 finished CTA #2 (25336,0), 2 CTAs running
GPGPU-Sim uArch: core:  7, cta: 2 initialized @(25337,0)
GPGPU-Sim uArch: Shader 14 finished CTA #2 (25356,0), 2 CTAs running
GPGPU-Sim uArch: core: 14, cta: 2 initialized @(25357,0)
GPGPU-Sim uArch: Shader 13 finished CTA #2 (25367,0), 2 CTAs running
GPGPU-Sim uArch: core: 13, cta: 2 initialized @(25368,0)
GPGPU-Sim uArch: Shader 12 finished CTA #2 (25389,0), 2 CTAs running
GPGPU-Sim uArch: core: 12, cta: 2 initialized @(25390,0)
GPGPU-Sim PTX: 20300000 instructions simulated : ctaid=(214,0,0) tid=(211,0,0)
GPGPU-Sim uArch: cycles simulated: 25500  inst.: 19751788 (ipc=774.6) sim_rate=246897 (inst/sec) elapsed = 0:0:01:20 / Tue Oct 31 01:23:55 2023
GPGPU-Sim uArch: Shader 10 finished CTA #2 (25504,0), 2 CTAs running
GPGPU-Sim uArch: core: 10, cta: 2 initialized @(25505,0)
GPGPU-Sim uArch: Shader 6 finished CTA #2 (25510,0), 2 CTAs running
GPGPU-Sim uArch: core:  6, cta: 2 initialized @(25511,0)
GPGPU-Sim PTX: 20400000 instructions simulated : ctaid=(181,0,0) tid=(483,0,0)
GPGPU-Sim uArch: Shader 9 finished CTA #2 (25548,0), 2 CTAs running
GPGPU-Sim uArch: core:  9, cta: 2 initialized @(25549,0)
GPGPU-Sim PTX: 20500000 instructions simulated : ctaid=(215,0,0) tid=(275,0,0)
GPGPU-Sim PTX: 20600000 instructions simulated : ctaid=(223,0,0) tid=(115,0,0)
GPGPU-Sim PTX: 20700000 instructions simulated : ctaid=(194,0,0) tid=(315,0,0)
GPGPU-Sim PTX: 20800000 instructions simulated : ctaid=(195,0,0) tid=(43,0,0)
GPGPU-Sim uArch: cycles simulated: 26000  inst.: 20169412 (ipc=775.7) sim_rate=245968 (inst/sec) elapsed = 0:0:01:22 / Tue Oct 31 01:23:57 2023
GPGPU-Sim PTX: 20900000 instructions simulated : ctaid=(196,0,0) tid=(399,0,0)
GPGPU-Sim PTX: 21000000 instructions simulated : ctaid=(190,0,0) tid=(371,0,0)
GPGPU-Sim PTX: 21100000 instructions simulated : ctaid=(206,0,0) tid=(231,0,0)
GPGPU-Sim PTX: 21200000 instructions simulated : ctaid=(205,0,0) tid=(57,0,0)
GPGPU-Sim uArch: cycles simulated: 26500  inst.: 20595294 (ipc=777.2) sim_rate=248136 (inst/sec) elapsed = 0:0:01:23 / Tue Oct 31 01:23:58 2023
GPGPU-Sim PTX: 21300000 instructions simulated : ctaid=(220,0,0) tid=(289,0,0)
GPGPU-Sim PTX: 21400000 instructions simulated : ctaid=(202,0,0) tid=(29,0,0)
GPGPU-Sim PTX: 21500000 instructions simulated : ctaid=(217,0,0) tid=(153,0,0)
GPGPU-Sim PTX: 21600000 instructions simulated : ctaid=(184,0,0) tid=(422,0,0)
GPGPU-Sim uArch: cycles simulated: 27000  inst.: 21005295 (ipc=778.0) sim_rate=247121 (inst/sec) elapsed = 0:0:01:25 / Tue Oct 31 01:24:00 2023
GPGPU-Sim PTX: 21700000 instructions simulated : ctaid=(203,0,0) tid=(266,0,0)
GPGPU-Sim PTX: 21800000 instructions simulated : ctaid=(215,0,0) tid=(223,0,0)
GPGPU-Sim uArch: Shader 3 finished CTA #0 (27161,0), 2 CTAs running
GPGPU-Sim uArch: core:  3, cta: 0 initialized @(27162,0)
GPGPU-Sim uArch: Shader 8 finished CTA #0 (27184,0), 2 CTAs running
GPGPU-Sim uArch: core:  8, cta: 0 initialized @(27185,0)
GPGPU-Sim uArch: Shader 4 finished CTA #0 (27220,0), 2 CTAs running
GPGPU-Sim uArch: core:  4, cta: 0 initialized @(27221,0)
GPGPU-Sim uArch: Shader 1 finished CTA #0 (27241,0), 2 CTAs running
GPGPU-Sim uArch: core:  1, cta: 0 initialized @(27242,0)
GPGPU-Sim uArch: Shader 7 finished CTA #0 (27251,0), 2 CTAs running
GPGPU-Sim uArch: core:  7, cta: 0 initialized @(27252,0)
GPGPU-Sim PTX: 21900000 instructions simulated : ctaid=(225,0,0) tid=(364,0,0)
GPGPU-Sim uArch: Shader 11 finished CTA #0 (27321,0), 2 CTAs running
GPGPU-Sim uArch: core: 11, cta: 0 initialized @(27322,0)
GPGPU-Sim uArch: Shader 0 finished CTA #0 (27373,0), 2 CTAs running
GPGPU-Sim uArch: core:  0, cta: 0 initialized @(27374,0)
GPGPU-Sim PTX: 22000000 instructions simulated : ctaid=(208,0,0) tid=(142,0,0)
GPGPU-Sim uArch: Shader 2 finished CTA #0 (27414,0), 2 CTAs running
GPGPU-Sim uArch: core:  2, cta: 0 initialized @(27415,0)
GPGPU-Sim uArch: Shader 13 finished CTA #0 (27435,0), 2 CTAs running
GPGPU-Sim uArch: core: 13, cta: 0 initialized @(27436,0)
GPGPU-Sim uArch: Shader 12 finished CTA #0 (27442,0), 2 CTAs running
GPGPU-Sim uArch: core: 12, cta: 0 initialized @(27443,0)
GPGPU-Sim uArch: Shader 14 finished CTA #0 (27454,0), 2 CTAs running
GPGPU-Sim uArch: core: 14, cta: 0 initialized @(27455,0)
GPGPU-Sim uArch: cycles simulated: 27500  inst.: 21408825 (ipc=778.5) sim_rate=248939 (inst/sec) elapsed = 0:0:01:26 / Tue Oct 31 01:24:01 2023
GPGPU-Sim PTX: 22100000 instructions simulated : ctaid=(224,0,0) tid=(182,0,0)
GPGPU-Sim uArch: Shader 6 finished CTA #0 (27523,0), 2 CTAs running
GPGPU-Sim uArch: core:  6, cta: 0 initialized @(27524,0)
GPGPU-Sim uArch: Shader 10 finished CTA #0 (27549,0), 2 CTAs running
GPGPU-Sim uArch: core: 10, cta: 0 initialized @(27550,0)
GPGPU-Sim uArch: Shader 9 finished CTA #0 (27566,0), 2 CTAs running
GPGPU-Sim uArch: core:  9, cta: 0 initialized @(27567,0)
GPGPU-Sim uArch: Shader 5 finished CTA #0 (27567,0), 2 CTAs running
GPGPU-Sim uArch: core:  5, cta: 0 initialized @(27568,0)
GPGPU-Sim PTX: 22200000 instructions simulated : ctaid=(220,0,0) tid=(478,0,0)
GPGPU-Sim PTX: 22300000 instructions simulated : ctaid=(225,0,0) tid=(494,0,0)
GPGPU-Sim PTX: 22400000 instructions simulated : ctaid=(225,0,0) tid=(330,0,0)
GPGPU-Sim PTX: 22500000 instructions simulated : ctaid=(203,0,0) tid=(290,0,0)
GPGPU-Sim uArch: cycles simulated: 28000  inst.: 21823813 (ipc=779.4) sim_rate=247997 (inst/sec) elapsed = 0:0:01:28 / Tue Oct 31 01:24:03 2023
GPGPU-Sim PTX: 22600000 instructions simulated : ctaid=(217,0,0) tid=(98,0,0)
GPGPU-Sim PTX: 22700000 instructions simulated : ctaid=(198,0,0) tid=(96,0,0)
GPGPU-Sim PTX: 22800000 instructions simulated : ctaid=(235,0,0) tid=(342,0,0)
GPGPU-Sim PTX: 22900000 instructions simulated : ctaid=(213,0,0) tid=(44,0,0)
GPGPU-Sim uArch: cycles simulated: 28500  inst.: 22247057 (ipc=780.6) sim_rate=247189 (inst/sec) elapsed = 0:0:01:30 / Tue Oct 31 01:24:05 2023
GPGPU-Sim PTX: 23000000 instructions simulated : ctaid=(197,0,0) tid=(353,0,0)
GPGPU-Sim PTX: 23100000 instructions simulated : ctaid=(221,0,0) tid=(490,0,0)
GPGPU-Sim PTX: 23200000 instructions simulated : ctaid=(213,0,0) tid=(462,0,0)
GPGPU-Sim PTX: 23300000 instructions simulated : ctaid=(223,0,0) tid=(497,0,0)
GPGPU-Sim uArch: Shader 2 finished CTA #1 (28960,0), 2 CTAs running
GPGPU-Sim uArch: core:  2, cta: 1 initialized @(28961,0)
GPGPU-Sim uArch: cycles simulated: 29000  inst.: 22645069 (ipc=780.9) sim_rate=246142 (inst/sec) elapsed = 0:0:01:32 / Tue Oct 31 01:24:07 2023
GPGPU-Sim uArch: Shader 13 finished CTA #1 (29004,0), 2 CTAs running
GPGPU-Sim uArch: core: 13, cta: 1 initialized @(29005,0)
GPGPU-Sim uArch: Shader 5 finished CTA #1 (29018,0), 2 CTAs running
GPGPU-Sim uArch: core:  5, cta: 1 initialized @(29019,0)
GPGPU-Sim PTX: 23400000 instructions simulated : ctaid=(201,0,0) tid=(123,0,0)
GPGPU-Sim uArch: Shader 12 finished CTA #1 (29064,0), 2 CTAs running
GPGPU-Sim uArch: core: 12, cta: 1 initialized @(29065,0)
GPGPU-Sim uArch: Shader 14 finished CTA #1 (29085,0), 2 CTAs running
GPGPU-Sim uArch: core: 14, cta: 1 initialized @(29086,0)
GPGPU-Sim uArch: Shader 10 finished CTA #1 (29088,0), 2 CTAs running
GPGPU-Sim uArch: core: 10, cta: 1 initialized @(29089,0)
GPGPU-Sim uArch: Shader 9 finished CTA #1 (29089,0), 2 CTAs running
GPGPU-Sim uArch: core:  9, cta: 1 initialized @(29090,0)
GPGPU-Sim uArch: Shader 0 finished CTA #1 (29139,0), 2 CTAs running
GPGPU-Sim uArch: core:  0, cta: 1 initialized @(29140,0)
GPGPU-Sim uArch: Shader 11 finished CTA #1 (29160,0), 2 CTAs running
GPGPU-Sim uArch: core: 11, cta: 1 initialized @(29161,0)
GPGPU-Sim PTX: 23500000 instructions simulated : ctaid=(240,0,0) tid=(173,0,0)
GPGPU-Sim uArch: Shader 3 finished CTA #1 (29198,0), 2 CTAs running
GPGPU-Sim uArch: core:  3, cta: 1 initialized @(29199,0)
GPGPU-Sim uArch: Shader 4 finished CTA #1 (29212,0), 2 CTAs running
GPGPU-Sim uArch: core:  4, cta: 1 initialized @(29213,0)
GPGPU-Sim uArch: Shader 1 finished CTA #1 (29230,0), 2 CTAs running
GPGPU-Sim uArch: core:  1, cta: 1 initialized @(29231,0)
GPGPU-Sim uArch: Shader 6 finished CTA #1 (29284,0), 2 CTAs running
GPGPU-Sim uArch: core:  6, cta: 1 initialized @(29285,0)
GPGPU-Sim PTX: 23600000 instructions simulated : ctaid=(216,0,0) tid=(305,0,0)
GPGPU-Sim uArch: Shader 8 finished CTA #1 (29336,0), 2 CTAs running
GPGPU-Sim uArch: core:  8, cta: 1 initialized @(29337,0)
GPGPU-Sim uArch: Shader 7 finished CTA #1 (29369,0), 2 CTAs running
GPGPU-Sim uArch: core:  7, cta: 1 initialized @(29370,0)
GPGPU-Sim PTX: 23700000 instructions simulated : ctaid=(238,0,0) tid=(201,0,0)
GPGPU-Sim uArch: cycles simulated: 29500  inst.: 23056734 (ipc=781.6) sim_rate=247921 (inst/sec) elapsed = 0:0:01:33 / Tue Oct 31 01:24:08 2023
GPGPU-Sim PTX: 23800000 instructions simulated : ctaid=(244,0,0) tid=(185,0,0)
[...]
dram_util_bins: 0 0 0 0 0 0 0 0 0 0
dram_eff_bins: 0 0 0 0 0 0 0 0 0 0
mrqq: max=16 avg=0.0803652
Memory Partition 3: 
Cache L2_bank_006:
MSHR contents

Cache L2_bank_007:
MSHR contents

In Dram Latency Queue (total = 0): 
DRAM[3]: 16 bks, busW=4 BL=8 CL=12, tRRD=2 tCCD=6, tRCD=12 tRAS=28 tRP=12 tRC=40
n_cmd=163740 n_nop=152953 n_act=171 n_pre=155 n_req=5241 n_rd=10432 n_write=29 bw_util=0.1278
n_activity=57712 dram_eff=0.3625
bk0: 644a 161990i bk1: 640a 161807i bk2: 640a 161930i bk3: 640a 161776i bk4: 660a 161796i bk5: 664a 161401i bk6: 704a 161576i bk7: 704a 161047i bk8: 648a 161751i bk9: 648a 161443i bk10: 640a 161555i bk11: 640a 161284i bk12: 640a 161725i bk13: 640a 161259i bk14: 640a 161872i bk15: 640a 161639i 
dram_util_bins: 0 0 0 0 0 0 0 0 0 0
dram_eff_bins: 0 0 0 0 0 0 0 0 0 0
mrqq: max=16 avg=0.072835
Memory Partition 4: 
Cache L2_bank_008:
MSHR contents

Cache L2_bank_009:
MSHR contents

In Dram Latency Queue (total = 0): 
DRAM[4]: 16 bks, busW=4 BL=8 CL=12, tRRD=2 tCCD=6, tRCD=12 tRAS=28 tRP=12 tRC=40
n_cmd=163740 n_nop=152946 n_act=178 n_pre=162 n_req=5234 n_rd=10432 n_write=22 bw_util=0.1277
n_activity=56804 dram_eff=0.3681
bk0: 644a 161951i bk1: 640a 161791i bk2: 640a 161925i bk3: 640a 161728i bk4: 660a 161737i bk5: 664a 161545i bk6: 704a 161494i bk7: 704a 161122i bk8: 648a 161633i bk9: 648a 161482i bk10: 640a 161473i bk11: 640a 161330i bk12: 640a 161475i bk13: 640a 161227i bk14: 640a 161850i bk15: 640a 161653i 
dram_util_bins: 0 0 0 0 0 0 0 0 0 0
dram_eff_bins: 0 0 0 0 0 0 0 0 0 0
mrqq: max=16 avg=0.0672713
Memory Partition 5: 
Cache L2_bank_010:
MSHR contents

Cache L2_bank_011:
MSHR contents

In Dram Latency Queue (total = 0): 
DRAM[5]: 16 bks, busW=4 BL=8 CL=12, tRRD=2 tCCD=6, tRCD=12 tRAS=28 tRP=12 tRC=40
n_cmd=163740 n_nop=152963 n_act=174 n_pre=158 n_req=5227 n_rd=10428 n_write=17 bw_util=0.1276
n_activity=57587 dram_eff=0.3628
bk0: 640a 162063i bk1: 640a 161863i bk2: 640a 161922i bk3: 640a 161767i bk4: 660a 161851i bk5: 664a 161451i bk6: 704a 161565i bk7: 704a 161272i bk8: 648a 161776i bk9: 648a 161497i bk10: 640a 161552i bk11: 640a 161331i bk12: 640a 161566i bk13: 640a 161343i bk14: 640a 161803i bk15: 640a 161662i 
dram_util_bins: 0 0 0 0 0 0 0 0 0 0
dram_eff_bins: 0 0 0 0 0 0 0 0 0 0
mrqq: max=16 avg=0.0696165

========= L2 cache stats =========
L2_cache_bank[0]: Access = 2700, Miss = 2608, Miss_rate = 0.966, Pending_hits = 7, Reservation_fails = 161
L2_cache_bank[1]: Access = 2668, Miss = 2606, Miss_rate = 0.977, Pending_hits = 3, Reservation_fails = 75
L2_cache_bank[2]: Access = 2668, Miss = 2606, Miss_rate = 0.977, Pending_hits = 5, Reservation_fails = 44
L2_cache_bank[3]: Access = 2668, Miss = 2606, Miss_rate = 0.977, Pending_hits = 1, Reservation_fails = 90
L2_cache_bank[4]: Access = 2683, Miss = 2607, Miss_rate = 0.972, Pending_hits = 7, Reservation_fails = 212
L2_cache_bank[5]: Access = 2670, Miss = 2608, Miss_rate = 0.977, Pending_hits = 1, Reservation_fails = 95
L2_cache_bank[6]: Access = 2698, Miss = 2608, Miss_rate = 0.967, Pending_hits = 10, Reservation_fails = 223
L2_cache_bank[7]: Access = 2732, Miss = 2608, Miss_rate = 0.955, Pending_hits = 11, Reservation_fails = 189
L2_cache_bank[8]: Access = 2698, Miss = 2608, Miss_rate = 0.967, Pending_hits = 10, Reservation_fails = 108
L2_cache_bank[9]: Access = 2732, Miss = 2608, Miss_rate = 0.955, Pending_hits = 4, Reservation_fails = 64
L2_cache_bank[10]: Access = 2668, Miss = 2606, Miss_rate = 0.977, Pending_hits = 0, Reservation_fails = 0
L2_cache_bank[11]: Access = 2732, Miss = 2608, Miss_rate = 0.955, Pending_hits = 3, Reservation_fails = 55
L2_total_cache_accesses = 32317
L2_total_cache_misses = 31287
L2_total_cache_miss_rate = 0.9681
L2_total_cache_pending_hits = 62
L2_total_cache_reservation_fails = 1316
L2_total_cache_breakdown:
	L2_cache_stats_breakdown[GLOBAL_ACC_R][MISS] = 31250
	L2_cache_stats_breakdown[GLOBAL_ACC_R][RESERVATION_FAIL] = 629
	L2_cache_stats_breakdown[CONST_ACC_R][HIT] = 11
	L2_cache_stats_breakdown[CONST_ACC_R][HIT_RESERVED] = 3
	L2_cache_stats_breakdown[CONST_ACC_R][MISS] = 1
	L2_cache_stats_breakdown[CONST_ACC_R][RESERVATION_FAIL] = 101
	L2_cache_stats_breakdown[GLOBAL_ACC_W][HIT] = 902
	L2_cache_stats_breakdown[GLOBAL_ACC_W][HIT_RESERVED] = 44
	L2_cache_stats_breakdown[GLOBAL_ACC_W][MISS] = 31
	L2_cache_stats_breakdown[GLOBAL_ACC_W][RESERVATION_FAIL] = 164
	L2_cache_stats_breakdown[INST_ACC_R][HIT] = 55
	L2_cache_stats_breakdown[INST_ACC_R][HIT_RESERVED] = 15
	L2_cache_stats_breakdown[INST_ACC_R][MISS] = 5
	L2_cache_stats_breakdown[INST_ACC_R][RESERVATION_FAIL] = 422
L2_cache_data_port_util = 0.001
L2_cache_fill_port_util = 0.084

icnt_total_pkts_mem_to_simt=157647
icnt_total_pkts_simt_to_mem=33294
LD_mem_lat_dist  0 0 0 0 0 0 0 0 0 0 0 0 0 0 0 0 0 0 0 0 0 0 0 0 0 0 0
ST_mem_lat_dist  0 0 0 0 0 0 0 0 0 0 0 0 0 0 0 0 0 0 0 0 0 0 0 0 0 0 0
----------------------------Interconnect-DETAILS--------------------------------
Class 0:
Packet latency average = 10.5821
	minimum = 6
	maximum = 104
Network latency average = 10.089
	minimum = 6
	maximum = 75
Slowest packet = 14
Flit latency average = 8.99823
	minimum = 6
	maximum = 71
Slowest flit = 1352
Fragmentation average = 0
	minimum = 0
	maximum = 0
Injected packet rate average = 0.0192981
	minimum = 0.0173403 (at node 0)
	maximum = 0.0220241 (at node 22)
Accepted packet rate average = 0.0192981
	minimum = 0.0173403 (at node 0)
	maximum = 0.0220241 (at node 22)
Injected flit rate average = 0.0570102
	minimum = 0.0178643 (at node 0)
	maximum = 0.106686 (at node 21)
Accepted flit rate average= 0.0570102
	minimum = 0.0220241 (at node 16)
	maximum = 0.0858875 (at node 1)
Injected packet length average = 2.95419
Accepted packet length average = 2.95419
Total in-flight flits = 0 (0 measured)
====== Overall Traffic Statistics ======
====== Traffic class 0 ======
Packet latency average = 10.5821 (1 samples)
	minimum = 6 (1 samples)
	maximum = 104 (1 samples)
Network latency average = 10.089 (1 samples)
	minimum = 6 (1 samples)
	maximum = 75 (1 samples)
Flit latency average = 8.99823 (1 samples)
	minimum = 6 (1 samples)
	maximum = 71 (1 samples)
Fragmentation average = 0 (1 samples)
	minimum = 0 (1 samples)
	maximum = 0 (1 samples)
Injected packet rate average = 0.0192981 (1 samples)
	minimum = 0.0173403 (1 samples)
	maximum = 0.0220241 (1 samples)
Accepted packet rate average = 0.0192981 (1 samples)
	minimum = 0.0173403 (1 samples)
	maximum = 0.0220241 (1 samples)
Injected flit rate average = 0.0570102 (1 samples)
	minimum = 0.0178643 (1 samples)
	maximum = 0.106686 (1 samples)
Accepted flit rate average = 0.0570102 (1 samples)
	minimum = 0.0220241 (1 samples)
	maximum = 0.0858875 (1 samples)
Injected packet size average = 2.95419 (1 samples)
Accepted packet size average = 2.95419 (1 samples)
Hops average = 1 (1 samples)
----------------------------END-of-Interconnect-DETAILS-------------------------


gpgpu_simulation_time = 0 days, 0 hrs, 6 min, 50 sec (410 sec)
gpgpu_simulation_rate = 242758 (inst/sec)
gpgpu_simulation_rate = 302 (cycle/sec)
Running Optimized Reduction
408.617401 s
Copying data from device to host...0.000713 s
Verifying results...1: 501.810 2: 516.790 3: 502.640 4: 510.410 5: 503.490 6: 505.570 7: 508.990 8: 497.270 9: 514.110 10: 519.030 11: 512.970 12: 505.890 13: 512.930 14: 519.840 15: 498.670 16: 495.380 17: 520.730 18: 500.290 19: 495.800 20: 517.400 21: 510.680 22: 497.160 23: 496.990 24: 504.120 25: 504.650 26: 516.580 27: 490.280 28: 500.610 29: 514.550 30: 504.510 31: 515.620 32: 490.280 33: 509.390 34: 509.470 35: 521.230 36: 499.790 37: 501.760 38: 511.820 39: 495.740 40: 519.980 41: 504.170 42: 534.700 43: 494.700 44: 516.460 45: 504.240 46: 523.980 47: 506.530 48: 516.550 49: 503.030 50: 499.970 51: 512.270 52: 511.880 53: 510.740 54: 484.400 55: 489.230 56: 489.540 57: 512.240 58: 502.510 59: 497.560 60: 515.260 61: 501.060 62: 504.060 63: 505.120 64: 503.730 65: 492.860 66: 492.280 67: 502.650 68: 507.390 69: 490.390 70: 506.910 71: 513.090 72: 522.960 73: 501.960 74: 524.010 75: 511.290 76: 513.120 77: 510.290 78: 492.840 79: 515.390 80: 506.210 81: 500.450 82: 517.070 83: 499.020 84: 499.970 85: 506.390 86: 516.670 87: 507.240 88: 508.610 89: 503.540 90: 494.450 91: 519.730 92: 489.410 93: 505.900 94: 516.940 95: 524.690 96: 499.320 97: 505.020 98: 494.970 99: 498.970 100: 504.700 101: 525.730 102: 516.560 103: 506.080 104: 478.530 105: 516.260 106: 497.790 107: 506.020 108: 509.630 109: 506.330 110: 512.730 111: 512.960 112: 502.390 113: 505.010 114: 514.490 115: 499.690 116: 511.000 117: 511.680 118: 517.920 119: 512.740 120: 493.730 121: 505.480 122: 502.010 123: 504.880 124: 514.210 125: 517.200 126: 523.530 127: 510.780 128: 494.450 129: 517.620 130: 508.660 131: 511.640 132: 517.950 133: 508.280 134: 500.970 135: 498.710 136: 517.520 137: 505.240 138: 514.680 139: 512.250 140: 509.840 141: 498.140 142: 497.210 143: 501.860 144: 513.930 145: 497.890 146: 519.260 147: 524.140 148: 491.050 149: 522.610 150: 513.170 151: 514.550 152: 514.160 153: 502.190 154: 495.400 155: 515.780 156: 512.680 157: 520.730 158: 495.820 159: 500.950 160: 512.850 161: 500.810 162: 510.280 163: 519.370 164: 518.580 165: 499.710 166: 505.300 167: 519.930 168: 499.510 169: 509.480 170: 501.980 171: 491.290 172: 505.880 173: 512.660 174: 516.630 175: 515.200 176: 505.160 177: 511.030 178: 511.430 179: 518.090 180: 515.170 181: 498.450 182: 505.100 183: 514.680 184: 499.440 185: 509.260 186: 505.430 187: 492.920 188: 503.100 189: 515.530 190: 513.340 191: 515.050 192: 514.360 193: 495.630 194: 512.880 195: 506.470 196: 524.050 197: 497.520 198: 499.700 199: 514.710 200: 507.050 201: 510.900 202: 502.360 203: 514.150 204: 511.220 205: 517.760 206: 511.310 207: 503.150 208: 513.320 209: 514.090 210: 506.130 211: 513.380 212: 499.520 213: 501.440 214: 516.220 215: 499.800 216: 518.190 217: 505.880 218: 509.380 219: 506.820 220: 491.500 221: 512.110 222: 498.630 223: 517.690 224: 515.870 225: 508.420 226: 521.270 227: 494.910 228: 516.980 229: 491.930 230: 497.710 231: 493.130 232: 493.250 233: 495.390 234: 492.650 235: 500.730 236: 491.100 237: 487.280 238: 499.510 239: 510.450 240: 517.350 241: 511.820 242: 489.630 243: 513.250 244: 501.570 245: 517.800 246: 494.840 247: 508.990 248: 520.140 249: 512.340 250: 506.240 251: 497.120 252: 505.340 253: 513.590 254: 487.880 255: 504.140 256: 515.100 257: 508.670 258: 516.600 259: 496.450 260: 514.710 261: 512.520 262: 511.400 263: 511.160 264: 509.280 265: 495.800 266: 510.480 267: 495.550 268: 507.010 269: 504.720 270: 510.250 271: 495.240 272: 519.850 273: 497.720 274: 500.880 275: 502.960 276: 504.480 277: 513.060 278: 499.090 279: 508.000 280: 517.620 281: 501.820 282: 509.410 283: 520.930 284: 499.380 285: 501.120 286: 502.960 287: 505.520 288: 503.570 289: 517.120 290: 501.030 291: 515.080 292: 498.500 293: 519.900 294: 498.660 295: 511.950 296: 502.560 297: 522.020 298: 499.580 299: 509.620 300: 500.330 301: 514.440 302: 498.820 303: 505.400 304: 502.250 305: 505.310 306: 498.040 307: 519.350 308: 499.670 309: 494.570 310: 499.990 311: 499.240 312: 504.370 313: 505.620 314: 507.880 315: 515.850 316: 520.170 317: 510.960 318: 508.350 319: 501.850 320: 501.450 321: 523.730 322: 492.250 323: 513.660 324: 513.000 325: 508.800 326: 505.570 327: 505.520 328: 506.360 329: 491.510 330: 496.870 331: 507.940 332: 508.620 333: 493.320 334: 506.040 335: 505.510 336: 515.090 337: 515.670 338: 510.020 339: 501.420 340: 507.320 341: 517.410 342: 501.520 343: 506.610 344: 510.580 345: 510.380 346: 493.360 347: 506.640 348: 532.480 349: 496.190 350: 513.100 351: 510.570 352: 490.170 353: 517.490 354: 497.040 355: 484.870 356: 496.100 357: 506.790 358: 507.250 359: 497.900 360: 511.280 361: 515.980 362: 510.760 363: 486.550 364: 504.030 365: 517.860 366: 500.130 367: 523.460 368: 488.660 369: 497.660 370: 502.060 371: 516.220 372: 509.160 373: 508.420 374: 507.790 375: 497.810 376: 517.120 377: 508.650 378: 497.300 379: 501.230 380: 502.640 381: 496.910 382: 495.010 383: 512.910 384: 516.060 385: 499.020 386: 506.920 387: 507.590 388: 511.770 389: 512.460 390: 500.010 391: 513.660 392: 516.310 393: 494.370 394: 503.940 395: 503.320 396: 499.840 397: 495.530 398: 506.690 399: 504.440 400: 508.820 401: 514.710 402: 502.440 403: 518.660 404: 518.320 405: 513.810 406: 529.020 407: 517.570 408: 508.600 409: 522.430 410: 501.910 411: 517.400 412: 509.700 413: 513.610 414: 512.220 415: 513.490 416: 501.500 417: 494.290 418: 508.600 419: 497.870 420: 494.580 421: 505.330 422: 516.530 423: 505.380 424: 514.280 425: 522.090 426: 516.870 427: 507.760 428: 511.470 429: 500.130 430: 499.190 431: 490.250 432: 515.310 433: 504.530 434: 512.480 435: 525.930 436: 506.180 437: 505.740 438: 494.010 439: 496.290 440: 504.740 441: 506.830 442: 502.110 443: 541.570 444: 528.610 445: 483.060 446: 500.910 447: 499.190 448: 509.050 449: 498.540 450: 526.420 451: 506.530 452: 511.610 453: 507.180 454: 514.780 455: 493.810 456: 514.860 457: 498.270 458: 503.650 459: 502.050 460: 498.470 461: 515.500 462: 516.520 463: 520.310 464: 519.480 465: 512.200 466: 504.600 467: 508.300 468: 505.430 469: 493.560 470: 520.640 471: 510.860 472: 514.090 473: 510.720 474: 502.440 475: 493.270 476: 510.070 477: 519.680 478: 499.940 479: 519.500 480: 511.720 481: 503.430 482: 491.890 483: 513.160 484: 505.180 485: 505.320 486: 503.030 487: 508.290 488: 521.160 489: 515.530 490: 516.820 491: 526.570 492: 501.440 493: 505.530 494: 523.340 495: 495.000 496: 509.440 497: 504.200 498: 493.980 499: 508.530 500: 522.680 501: 499.860 502: 520.750 503: 502.830 504: 503.540 505: 500.330 506: 528.730 507: 508.800 508: 505.840 509: 498.850 510: 503.690 511: 513.470 512: 503.150 513: 506.350 514: 505.500 515: 518.480 516: 506.110 517: 506.840 518: 498.760 519: 507.290 520: 498.380 521: 502.740 522: 513.200 523: 507.950 524: 494.880 525: 500.380 526: 508.480 527: 494.020 528: 502.120 529: 512.010 530: 502.310 531: 500.780 532: 510.950 533: 515.590 534: 524.890 535: 506.190 536: 519.620 537: 498.190 538: 520.890 539: 509.140 540: 518.050 541: 499.020 542: 520.250 543: 503.550 544: 515.180 545: 499.910 546: 497.250 547: 517.340 548: 515.070 549: 525.430 550: 503.770 551: 494.250 552: 500.080 553: 512.490 554: 487.960 555: 507.190 556: 514.930 557: 511.070 558: 491.490 559: 514.900 560: 506.230 561: 497.370 562: 515.310 563: 507.450 564: 514.580 565: 499.630 566: 501.050 567: 500.800 568: 509.350 569: 519.440 570: 503.700 571: 490.080 572: 519.140 573: 488.740 574: 513.490 575: 496.260 576: 515.260 577: 496.030 578: 495.580 579: 501.450 580: 499.780 581: 499.160 582: 506.180 583: 503.780 584: 499.490 585: 494.660 586: 505.340 587: 490.000 588: 506.770 589: 507.420 590: 520.150 591: 492.270 592: 508.430 593: 507.820 594: 508.600 595: 506.120 596: 517.580 597: 513.790 598: 509.170 599: 522.310 600: 511.440 601: 513.540 602: 504.770 603: 515.970 604: 500.900 605: 513.140 606: 503.140 607: 507.810 608: 503.470 609: 507.190 610: 508.820 611: 493.910 612: 520.820 613: 518.240 614: 519.730 615: 501.790 616: 507.450 617: 512.310 618: 514.300 619: 520.290 620: 518.950 621: 507.920 622: 501.810 623: 502.290 624: 518.440 625: 514.790 626: 509.320 627: 513.560 628: 510.500 629: 490.020 630: 496.000 631: 516.680 632: 494.110 633: 504.040 634: 517.390 635: 495.170 636: 503.020 637: 511.260 638: 514.510 639: 513.850 640: 511.130 641: 508.430 642: 508.670 643: 503.000 644: 509.720 645: 514.830 646: 500.300 647: 495.310 648: 521.570 649: 496.400 650: 520.860 651: 502.940 652: 483.460 653: 516.170 654: 513.070 655: 509.880 656: 515.790 657: 515.750 658: 494.280 659: 512.080 660: 508.350 661: 501.280 662: 519.690 663: 500.880 664: 515.310 665: 493.060 666: 502.780 667: 499.730 668: 509.810 669: 495.580 670: 522.220 671: 510.300 672: 507.480 673: 498.670 674: 507.630 675: 508.730 676: 497.280 677: 499.940 678: 511.160 679: 490.550 680: 498.020 681: 503.040 682: 519.840 683: 511.940 684: 507.750 685: 499.250 686: 520.980 687: 513.110 688: 532.590 689: 517.030 690: 503.490 691: 506.060 692: 500.900 693: 511.380 694: 492.850 695: 517.250 696: 512.810 697: 518.160 698: 500.740 699: 503.240 700: 507.360 701: 506.700 702: 496.150 703: 500.970 704: 496.450 705: 506.710 706: 514.760 707: 491.370 708: 506.530 709: 508.280 710: 493.160 711: 523.520 712: 511.940 713: 509.950 714: 496.150 715: 489.440 716: 512.390 717: 508.160 718: 519.720 719: 507.800 720: 504.830 721: 516.480 722: 520.270 723: 504.900 724: 495.250 725: 509.940 726: 509.210 727: 515.040 728: 530.640 729: 516.560 730: 508.490 731: 513.350 732: 512.950 733: 492.310 734: 505.150 735: 511.100 736: 515.450 737: 512.090 738: 513.440 739: 512.350 740: 507.240 741: 495.160 742: 493.610 743: 498.590 744: 499.220 745: 510.400 746: 502.870 747: 507.640 748: 505.930 749: 519.670 750: 497.350 751: 478.080 752: 486.710 753: 505.690 754: 500.130 755: 513.360 756: 514.710 757: 501.590 758: 502.620 759: 497.770 760: 504.700 761: 512.340 762: 508.750 763: 492.030 764: 512.290 765: 523.900 766: 495.170 767: 496.770 768: 517.010 769: 518.220 770: 509.780 771: 522.900 772: 496.730 773: 501.840 774: 505.760 775: 513.450 776: 502.430 777: 513.700 778: 503.310 779: 500.270 780: 520.040 781: 498.940 782: 494.500 783: 507.840 784: 491.440 785: 508.180 786: 507.200 787: 506.030 788: 527.040 789: 498.340 790: 508.030 791: 504.650 792: 504.990 793: 506.960 794: 529.030 795: 502.140 796: 521.180 797: 504.070 798: 501.670 799: 502.780 800: 504.010 801: 495.690 802: 506.500 803: 499.800 804: 517.080 805: 532.880 806: 497.700 807: 517.180 808: 493.790 809: 518.510 810: 501.330 811: 508.220 812: 495.330 813: 499.610 814: 502.770 815: 497.000 816: 507.550 817: 508.950 818: 509.420 819: 497.310 820: 493.760 821: 517.250 822: 512.350 823: 507.710 824: 525.080 825: 502.780 826: 520.140 827: 503.780 828: 519.460 829: 493.290 830: 506.520 831: 518.490 832: 494.030 833: 516.020 834: 517.840 835: 508.180 836: 510.940 837: 499.140 838: 500.940 839: 496.050 840: 504.810 841: 496.020 842: 498.540 843: 502.420 844: 515.520 845: 513.430 846: 509.760 847: 513.480 848: 502.940 849: 509.890 850: 496.160 851: 513.270 852: 507.340 853: 511.350 854: 512.990 855: 514.330 856: 521.400 857: 510.420 858: 514.380 859: 513.340 860: 504.660 861: 513.760 862: 484.580 863: 512.600 864: 517.110 865: 491.840 866: 495.810 867: 495.860 868: 520.280 869: 524.160 870: 498.610 871: 510.640 872: 493.770 873: 515.550 874: 530.710 875: 509.100 876: 510.210 877: 511.980 878: 504.440 879: 517.230 880: 523.470 881: 519.290 882: 510.910 883: 502.620 884: 484.710 885: 503.690 886: 509.530 887: 499.260 888: 500.050 889: 499.170 890: 497.290 891: 509.080 892: 498.550 893: 511.320 894: 506.820 895: 504.850 896: 495.820 897: 492.180 898: 491.980 899: 503.190 900: 515.010 901: 487.870 902: 505.950 903: 495.970 904: 501.800 905: 497.080 906: 518.680 907: 519.620 908: 491.960 909: 509.920 910: 510.150 911: 504.120 912: 508.460 913: 512.150 914: 518.690 915: 499.080 916: 516.060 917: 500.740 918: 495.190 919: 486.410 920: 510.160 921: 527.670 922: 515.150 923: 509.010 924: 508.990 925: 504.940 926: 511.860 927: 510.570 928: 498.930 929: 507.910 930: 493.480 931: 516.400 932: 496.920 933: 499.520 934: 507.850 935: 510.390 936: 505.580 937: 503.360 938: 508.770 939: 496.270 940: 499.160 941: 506.670 942: 502.480 943: 510.670 944: 514.960 945: 517.460 946: 516.560 947: 504.210 948: 509.270 949: 528.200 950: 497.450 951: 500.820 952: 517.080 953: 504.080 954: 505.870 955: 519.660 956: 505.640 957: 520.040 958: 497.990 959: 516.950 960: 514.890 961: 516.440 962: 502.480 963: 518.560 964: 499.240 965: 513.040 966: 498.560 967: 501.770 968: 505.210 969: 506.710 970: 497.810 971: 501.200 972: 509.430 973: 494.890 974: 511.310 975: 520.000 976: 281.190 
 Sum: 495179.750000 
TEST PASSED

